/*--------------------------------*- C++ -*----------------------------------*\
| =========                 |                                                 |
| \\      /  F ield         | OpenFOAM: The Open Source CFD Toolbox           |
|  \\    /   O peration     | Version:  5.x                                   |
|   \\  /    A nd           | Web:      www.OpenFOAM.org                      |
|    \\/     M anipulation  |                                                 |
\*---------------------------------------------------------------------------*/
FoamFile
{
    version     2.0;
    format      ascii;
    class       extendedFeatureEdgeMesh;
    location    "constant/extendedFeatureEdgeMesh";
    object      tissue.extendedFeatureEdgeMesh;
}
// * * * * * * * * * * * * * * * * * * * * * * * * * * * * * * * * * * * * * //

// points

134
(
(0.036 0 0)
(0.035842 0.003371 0)
(0.035369 0.006713 0)
(0.034585 0.009995 0)
(0.033497 0.01319 0)
(0.032114 0.016268 0)
(0.03045 0.019204 0)
(0.028518 0.021971 0)
(0.026335 0.024545 0)
(0.023921 0.026903 0)
(0.021297 0.029025 0)
(0.018485 0.030892 0)
(0.015511 0.032487 0)
(0.012401 0.033797 0)
(0.009182 0.034809 0)
(0.005882 0.035516 0)
(0.00253 0.035911 0)
(-0.000844 0.03599 0)
(-0.00421 0.035753 0)
(-0.00754 0.035202 0)
(-0.010803 0.034341 0)
(-0.013971 0.033178 0)
(-0.017017 0.031724 0)
(-0.019913 0.029991 0)
(-0.022634 0.027995 0)
(-0.025156 0.025752 0)
(-0.027457 0.023284 0)
(-0.029516 0.02061 0)
(-0.031317 0.017756 0)
(-0.032842 0.014745 0)
(-0.034078 0.011605 0)
(-0.035015 0.008363 0)
(-0.035644 0.005047 0)
(-0.03596 0.001687 0)
(-0.03596 -0.001687 0)
(-0.035644 -0.005047 0)
(-0.035015 -0.008363 0)
(-0.034078 -0.011605 0)
(-0.032842 -0.014745 0)
(-0.031317 -0.017756 0)
(-0.029516 -0.02061 0)
(-0.027457 -0.023284 0)
(-0.025156 -0.025752 0)
(-0.022634 -0.027995 0)
(-0.019913 -0.029991 0)
(-0.017017 -0.031724 0)
(-0.013971 -0.033178 0)
(-0.010803 -0.034341 0)
(-0.00754 -0.035202 0)
(-0.00421 -0.035753 0)
(-0.000844 -0.03599 0)
(0 -0.036 0)
(0.00253 -0.035911 0)
(0.005882 -0.035516 0)
(0.009182 -0.034809 0)
(0.012401 -0.033797 0)
(0.015511 -0.032487 0)
(0.018485 -0.030892 0)
(0.021297 -0.029025 0)
(0.023921 -0.026903 0)
(0.026335 -0.024545 0)
(0.028518 -0.021971 0)
(0.03045 -0.019204 0)
(0.032114 -0.016268 0)
(0.033497 -0.01319 0)
(0.034585 -0.009995 0)
(0.035369 -0.006713 0)
(0.035842 -0.003371 0)
(0.033344 -0.003233 0)
(0.0335 0 0)
(0.032876 -0.006436 0)
(0.01628 0.029278 0)
(0.013379 0.030713 0)
(0.028022 0.018358 0)
(0.026119 0.020977 0)
(0.032101 -0.009579 0)
(0.031027 -0.012633 0)
(0.029663 -0.015568 0)
(0.028022 -0.018358 0)
(0.026119 -0.020977 0)
(0.023973 -0.0234 0)
(0.021602 -0.025605 0)
(0.000809 -0.03349 0)
(0.004038 -0.033256 0)
(0.01903 0.02757 0)
(0.029663 0.015568 0)
(0.032101 0.009579 0)
(0.031027 0.012633 0)
(0.01903 -0.02757 0)
(0.01628 -0.029278 0)
(0.010352 -0.03186 0)
(0.013379 -0.030713 0)
(0.007229 -0.032711 0)
(-0.002427 -0.033412 0)
(0 -0.0335 0)
(0.021602 0.025605 0)
(0.023973 0.0234 0)
(0.032876 0.006436 0)
(0.033344 0.003233 0)
(-0.00564 -0.033022 0)
(-0.014847 -0.03003 0)
(-0.011879 -0.031323 0)
(0.010352 0.03186 0)
(-0.008801 -0.032323 0)
(-0.017676 -0.028457 0)
(-0.02034 -0.026618 0)
(-0.025075 -0.022215 0)
(-0.022814 -0.024531 0)
(-0.033148 0.00484 0)
(-0.033461 0.001618 0)
(-0.032527 0.008017 0)
(-0.011879 0.031323 0)
(-0.014847 0.03003 0)
(-0.008801 0.032323 0)
(-0.032527 -0.008017 0)
(-0.031601 -0.011119 0)
(-0.033461 -0.001618 0)
(-0.031601 0.011119 0)
(-0.03038 0.014117 0)
(-0.025075 0.022215 0)
(-0.027102 0.019691 0)
(-0.022814 0.024531 0)
(-0.02034 0.026618 0)
(-0.017676 0.028457 0)
(-0.00564 0.033022 0)
(0.000809 0.03349 0)
(-0.002427 0.033412 0)
(-0.028876 -0.016983 0)
(-0.027102 -0.019691 0)
(-0.03038 -0.014117 0)
(-0.028876 0.016983 0)
(0.007229 0.032711 0)
(0.004038 0.033256 0)
(-0.033148 -0.00484 0)
)

// edges

134
(
(0 1)
(1 2)
(2 3)
(3 4)
(4 5)
(5 6)
(6 7)
(7 8)
(8 9)
(9 10)
(10 11)
(11 12)
(12 13)
(13 14)
(14 15)
(15 16)
(16 17)
(17 18)
(18 19)
(19 20)
(20 21)
(21 22)
(22 23)
(23 24)
(24 25)
(25 26)
(26 27)
(27 28)
(28 29)
(29 30)
(30 31)
(31 32)
(32 33)
(33 34)
(34 35)
(35 36)
(36 37)
(37 38)
(38 39)
(39 40)
(40 41)
(41 42)
(42 43)
(43 44)
(44 45)
(45 46)
(46 47)
(47 48)
(48 49)
(49 50)
(50 51)
(52 53)
(53 54)
(54 55)
(55 56)
(56 57)
(57 58)
(58 59)
(59 60)
(60 61)
(61 62)
(62 63)
(63 64)
(64 65)
(65 66)
(66 67)
(67 0)
(51 52)
(68 69)
(70 68)
(71 72)
(73 74)
(75 70)
(76 75)
(77 76)
(78 77)
(79 78)
(80 79)
(81 80)
(82 83)
(84 71)
(85 73)
(86 87)
(88 81)
(89 88)
(90 91)
(92 90)
(93 94)
(95 84)
(74 96)
(97 86)
(91 89)
(83 92)
(94 82)
(96 95)
(98 97)
(99 93)
(100 101)
(72 102)
(69 98)
(103 99)
(104 100)
(87 85)
(105 104)
(106 107)
(108 109)
(110 108)
(111 112)
(113 111)
(107 105)
(114 115)
(109 116)
(117 110)
(118 117)
(119 120)
(121 119)
(122 121)
(123 122)
(124 113)
(125 126)
(101 103)
(127 128)
(115 129)
(130 118)
(120 130)
(112 123)
(126 124)
(131 132)
(128 106)
(133 114)
(102 131)
(116 133)
(129 127)
(132 125)
)

// concaveStart mixedStart nonFeatureStart
0 0 0
// internalStart flatStart openStart multipleStart
134 134 134 134
// normals

268
(
(0.997834 0.046768 0.0462571)
(0 -0 -1)
(0.989078 0.139986 0.0461439)
(0 -0 -1)
(0.971596 0.232094 0.0461898)
(0 -0 -1)
(0.945604 0.322009 0.0462957)
(0 -0 -1)
(0.911178 0.409408 0.0462475)
(0 -0 -1)
(0.869065 0.492549 0.0460703)
(0 -0 -1)
(0.819039 0.571877 0.0461674)
(0 -0 -1)
(0.761839 0.646113 0.0462613)
(0 -0 -1)
(0.698017 0.714594 0.0461199)
(0 0 -1)
(0.628142 0.776741 0.0459418)
(0 0 -1)
(0.552536 0.832208 0.0461994)
(0 0 -1)
(0.472128 0.880318 0.0462072)
(0 0 -1)
(0.387774 0.920595 0.0462244)
(0 0 -1)
(0.299593 0.952953 0.0460881)
(0 0 -1)
(0.209267 0.976774 0.0460371)
(0 0 -1)
(0.116906 0.992077 0.0460097)
(0 0 -1)
(0.0233826 0.998664 0.0460729)
(0 0 -1)
(-0.0701616 0.996475 0.0459792)
(0 0 -1)
(-0.163071 0.985529 0.0462741)
(0 0 -1)
(-0.254861 0.965866 0.0463583)
(0 0 -1)
(-0.344251 0.937737 0.0462621)
(0 0 -1)
(-0.430331 0.901503 0.0459072)
(0 0 -1)
(-0.512947 0.857181 0.0461052)
(0 0 -1)
(-0.590849 0.805461 0.0461535)
(0 0 -1)
(-0.663859 0.746435 0.0461224)
(0 0 -1)
(-0.730642 0.681202 0.0461049)
(0 0 -1)
(-0.79148 0.609445 0.0462215)
(0 0 -1)
(-0.844791 0.533101 0.0461639)
(0 0 -1)
(-0.891149 0.451346 0.0462718)
(0 0 -1)
(-0.929517 0.365886 0.0461118)
(0 0 -1)
(-0.959665 0.277361 0.0459788)
(0 0 -1)
(-0.981439 0.186166 0.0460365)
(0 0 -1)
(-0.994548 0.0935353 0.0460972)
(0 0 -1)
(-0.998941 0 0.0460082)
(0 0 -1)
(-0.994553 -0.0935357 0.0460032)
(0 0 -1)
(-0.981437 -0.186165 0.0460828)
(0 0 -1)
(-0.959662 -0.277361 0.046048)
(0 0 -1)
(-0.929523 -0.365888 0.0459689)
(0 0 -1)
(-0.891155 -0.451349 0.0461159)
(0 0 -1)
(-0.844787 -0.533098 0.046272)
(0 0 -1)
(-0.791482 -0.609447 0.0461643)
(0 0 -1)
(-0.730638 -0.681198 0.0462385)
(0 0 -1)
(-0.66386 -0.746436 0.0460742)
(0 0 -1)
(-0.59085 -0.805463 0.0461051)
(0 0 -1)
(-0.512946 -0.85718 0.046153)
(0 0 -1)
(-0.430327 -0.901495 0.0460905)
(0 0 -1)
(-0.344256 -0.937752 0.045917)
(0 0 -1)
(-0.254862 -0.96587 0.0462692)
(0 0 -1)
(-0.16307 -0.985524 0.0463677)
(0 0 -1)
(-0.0701606 -0.996462 0.0462742)
(0 0 -1)
(-0.0118334 -0.99887 0.0460192)
(0 -0 -1)
(0.116906 -0.992073 0.046079)
(0 -0 -1)
(0.209267 -0.976774 0.046037)
(0 -0 -1)
(0.299593 -0.952954 0.0460634)
(0 -0 -1)
(0.387776 -0.9206 0.0460926)
(0 -0 -1)
(0.472128 -0.880318 0.046215)
(0 -0 -1)
(0.552536 -0.832207 0.0462077)
(0 -0 -1)
(0.628135 -0.776732 0.0461995)
(0 -0 -1)
(0.698022 -0.7146 0.045955)
(0 -0 -1)
(0.761844 -0.646117 0.0461074)
(0 0 -1)
(0.819036 -0.571874 0.0462612)
(0 0 -1)
(0.869061 -0.492547 0.0461668)
(0 0 -1)
(0.911185 -0.409412 0.0460805)
(0 0 -1)
(0.945607 -0.32201 0.0462299)
(0 0 -1)
(0.971591 -0.232093 0.0462896)
(0 0 -1)
(0.989076 -0.139986 0.0461803)
(0 0 -1)
(0.997839 -0.0467682 0.0461546)
(0 0 -1)
(0.0351176 -0.99832 0.0460959)
(-0 0 -1)
(0 0 -1)
(-0.997763 0.0481445 -0.0463776)
(0 0 -1)
(-0.988445 0.144425 -0.046031)
(0 0 -1)
(-0.442907 -0.895382 -0.0460962)
(0 0 -1)
(-0.808126 -0.587195 -0.0461913)
(0 0 -1)
(-0.969884 0.239153 -0.04616)
(0 0 -1)
(-0.942353 0.331398 -0.0463373)
(0 0 -1)
(-0.905884 0.420997 -0.0462096)
(0 0 -1)
(-0.861037 0.506438 -0.0462075)
(0 0 -1)
(-0.808136 0.587203 -0.0459277)
(0 0 -1)
(-0.747797 0.662308 -0.0463451)
(0 0 -1)
(-0.680278 0.731492 -0.0462794)
(0 0 -1)
(-0.0722006 0.996321 -0.0461629)
(0 0 -1)
(-0.527046 -0.84858 -0.0462061)
(0 0 -1)
(-0.861038 -0.506438 -0.0461913)
(0 0 -1)
(-0.94236 -0.3314 -0.0461636)
(0 0 -1)
(-0.606446 0.793781 -0.0461948)
(0 0 -1)
(-0.527049 0.848585 -0.046082)
(0 0 -1)
(-0.353961 0.934121 -0.0461395)
(0 0 -1)
(-0.262626 0.963787 -0.0462865)
(0 0 -1)
(0.0361971 0.998271 -0.0463118)
(0 0 -1)
(-0.606443 -0.793778 -0.0462984)
(0 0 -1)
(-0.747811 -0.662321 -0.0459243)
(0 0 -1)
(-0.96989 -0.239155 -0.0460181)
(0 0 -1)
(-0.442906 0.895381 -0.0461146)
(0 0 -1)
(-0.168176 0.984676 -0.046161)
(0 0 -1)
(-0.0123498 0.998855 -0.046222)
(0 0 -1)
(-0.680276 -0.73149 -0.0463334)
(0 0 -1)
(-0.988428 -0.144422 -0.0463818)
(0 0 -1)
(0.120368 0.991655 -0.046171)
(0 0 -1)
(0.398969 0.915807 -0.0460555)
(0 0 -1)
(-0.353961 -0.934122 -0.0461163)
(0 0 -1)
(-0.997773 -0.048145 -0.04616)
(0 0 -1)
(0.215687 0.975369 -0.0461976)
(0 0 -1)
(0.485444 0.873059 -0.0459557)
(0 0 -1)
(-0.905879 -0.420995 -0.0463332)
(0 0 -1)
(0.567499 0.822087 -0.0460261)
(0 -0 -1)
(0.714788 0.697814 -0.0461901)
(0 0 -1)
(0.994262 -0.096588 -0.045979)
(0 0 -1)
(0.980379 -0.191632 -0.0461942)
(0 -0 -1)
(0.398967 -0.915803 -0.0461554)
(0 -0 -1)
(0.308658 -0.95005 -0.0462101)
(0 0 -1)
(0.644105 0.763544 -0.0461498)
(0 -0 -1)
(0.957194 0.285738 -0.0461867)
(0 -0 -1)
(0.998932 0 -0.0462136)
(0 0 -1)
(0.957191 -0.285738 -0.0462429)
(0 0 -1)
(0.925159 -0.376791 -0.0459244)
(0 0 -1)
(0.77886 -0.625495 -0.0461853)
(0 0 -1)
(0.71479 -0.697815 -0.0461353)
(0 -0 -1)
(0.644108 -0.763547 -0.0460423)
(0 -0 -1)
(0.567501 -0.822089 -0.0459515)
(0 -0 -1)
(0.215687 -0.975371 -0.0461682)
(0 -0 -1)
(0.0240712 -0.998643 -0.0461769)
(0 0 -1)
(0.308658 0.950051 -0.0461793)
(0 -0 -1)
(0.835605 0.547402 -0.0460021)
(0 -0 -1)
(0.925145 0.376785 -0.0462571)
(0 0 -1)
(0.884543 -0.464184 -0.046011)
(0 0 -1)
(0.835596 -0.547396 -0.0462343)
(0 -0 -1)
(0.485442 -0.873055 -0.0460476)
(0 -0 -1)
(0.120367 -0.991649 -0.046305)
(0 0 -1)
(-0.168175 -0.98467 -0.0462851)
(0 -0 -1)
(0.778859 0.625494 -0.0462274)
(0 -0 -1)
(0.98039 0.191634 -0.0459612)
(0 0 -1)
(-0.262628 -0.963793 -0.046145)
(0 -0 -1)
(0.994252 0.0965871 -0.0461846)
(0 -0 -1)
(0.884546 0.464186 -0.0459259)
(0 0 -1)
(-0.0722006 -0.996321 -0.0461681)
)

// normal volume types

268
(
0
0
0
0
0
0
0
0
0
0
0
0
0
0
0
0
0
0
0
0
0
0
0
0
0
0
0
0
0
0
0
0
0
0
0
0
0
0
0
0
0
0
0
0
0
0
0
0
0
0
0
0
0
0
0
0
0
0
0
0
0
0
0
0
0
0
0
0
0
0
0
0
0
0
0
0
0
0
0
0
0
0
0
0
0
0
0
0
0
0
0
0
0
0
0
0
0
0
0
0
0
0
0
0
0
0
0
0
0
0
0
0
0
0
0
0
0
0
0
0
0
0
0
0
0
0
0
0
0
0
0
0
0
0
0
0
0
0
0
0
0
0
0
0
0
0
0
0
0
0
0
0
0
0
0
0
0
0
0
0
0
0
0
0
0
0
0
0
0
0
0
0
0
0
0
0
0
0
0
0
0
0
0
0
0
0
0
0
0
0
0
0
0
0
0
0
0
0
0
0
0
0
0
0
0
0
0
0
0
0
0
0
0
0
0
0
0
0
0
0
0
0
0
0
0
0
0
0
0
0
0
0
0
0
0
0
0
0
0
0
0
0
0
0
0
0
0
0
0
0
0
0
0
0
0
0
0
0
0
0
0
0
0
0
0
0
0
0
)

// normalDirections

134
(
2(1 -1)
2(1 -1)
2(1 -1)
2(1 -1)
2(1 -1)
2(1 -1)
2(1 -1)
2(1 -1)
2(1 -1)
2(1 -1)
2(1 -1)
2(1 -1)
2(1 -1)
2(1 -1)
2(1 -1)
2(1 -1)
2(1 -1)
2(1 -1)
2(1 -1)
2(1 -1)
2(1 -1)
2(1 -1)
2(1 -1)
2(1 -1)
2(1 -1)
2(1 -1)
2(1 -1)
2(1 -1)
2(1 -1)
2(1 -1)
2(1 -1)
2(1 -1)
2(1 -1)
2(1 -1)
2(1 -1)
2(1 -1)
2(1 -1)
2(1 -1)
2(1 -1)
2(1 -1)
2(1 -1)
2(1 -1)
2(1 -1)
2(1 -1)
2(1 -1)
2(1 -1)
2(1 -1)
2(1 -1)
2(1 -1)
2(1 -1)
2(1 -1)
2(1 -1)
2(1 -1)
2(1 -1)
2(1 -1)
2(1 -1)
2(1 -1)
2(1 -1)
2(1 -1)
2(1 -1)
2(1 -1)
2(1 -1)
2(1 -1)
2(1 -1)
2(1 -1)
2(1 -1)
2(1 -1)
2(1 -1)
2(1 -1)
2(1 -1)
2(1 -1)
2(1 -1)
2(1 -1)
2(1 -1)
2(1 -1)
2(1 -1)
2(1 -1)
2(1 -1)
2(1 -1)
2(1 -1)
2(1 -1)
2(1 -1)
2(1 -1)
2(1 -1)
2(1 -1)
2(1 -1)
2(1 -1)
2(1 -1)
2(1 -1)
2(1 -1)
2(1 -1)
2(1 -1)
2(1 -1)
2(1 -1)
2(1 -1)
2(1 -1)
2(1 -1)
2(1 -1)
2(1 -1)
2(1 -1)
2(1 -1)
2(1 -1)
2(1 -1)
2(1 -1)
2(1 -1)
2(1 -1)
2(1 -1)
2(1 -1)
2(1 -1)
2(1 -1)
2(1 -1)
2(1 -1)
2(1 -1)
2(1 -1)
2(1 -1)
2(1 -1)
2(1 -1)
2(1 -1)
2(1 -1)
2(1 -1)
2(1 -1)
2(1 -1)
2(1 -1)
2(1 -1)
2(1 -1)
2(1 -1)
2(1 -1)
2(1 -1)
2(1 -1)
2(1 -1)
2(1 -1)
2(1 -1)
2(1 -1)
2(1 -1)
)

// edgeNormals

134
(
2(0 1)
2(2 3)
2(4 5)
2(6 7)
2(8 9)
2(10 11)
2(12 13)
2(14 15)
2(16 17)
2(18 19)
2(20 21)
2(22 23)
2(24 25)
2(26 27)
2(28 29)
2(30 31)
2(32 33)
2(34 35)
2(36 37)
2(38 39)
2(40 41)
2(42 43)
2(44 45)
2(46 47)
2(48 49)
2(50 51)
2(52 53)
2(54 55)
2(56 57)
2(58 59)
2(60 61)
2(62 63)
2(64 65)
2(66 67)
2(68 69)
2(70 71)
2(72 73)
2(74 75)
2(76 77)
2(78 79)
2(80 81)
2(82 83)
2(84 85)
2(86 87)
2(88 89)
2(90 91)
2(92 93)
2(94 95)
2(96 97)
2(98 99)
2(100 101)
2(102 103)
2(104 105)
2(106 107)
2(108 109)
2(110 111)
2(112 113)
2(114 115)
2(116 117)
2(118 119)
2(120 121)
2(122 123)
2(124 125)
2(126 127)
2(128 129)
2(130 131)
2(132 133)
2(134 135)
2(136 137)
2(138 139)
2(140 141)
2(142 143)
2(144 145)
2(146 147)
2(148 149)
2(150 151)
2(152 153)
2(154 155)
2(156 157)
2(158 159)
2(160 161)
2(162 163)
2(164 165)
2(166 167)
2(168 169)
2(170 171)
2(172 173)
2(174 175)
2(176 177)
2(178 179)
2(180 181)
2(182 183)
2(184 185)
2(186 187)
2(188 189)
2(190 191)
2(192 193)
2(194 195)
2(196 197)
2(198 199)
2(200 201)
2(202 203)
2(204 205)
2(206 207)
2(208 209)
2(210 211)
2(212 213)
2(214 215)
2(216 217)
2(218 219)
2(220 221)
2(222 223)
2(224 225)
2(226 227)
2(228 229)
2(230 231)
2(232 233)
2(234 235)
2(236 237)
2(238 239)
2(240 241)
2(242 243)
2(244 245)
2(246 247)
2(248 249)
2(250 251)
2(252 253)
2(254 255)
2(256 257)
2(258 259)
2(260 261)
2(262 263)
2(264 265)
2(266 267)
)

// featurePointNormals
0()
// featurePointEdges
0()
// regionEdges
0()


// ************************************************************************* //
