/*--------------------------------*- C++ -*----------------------------------*\
| =========                 |                                                 |
| \\      /  F ield         | OpenFOAM: The Open Source CFD Toolbox           |
|  \\    /   O peration     | Version:  5.x                                   |
|   \\  /    A nd           | Web:      www.OpenFOAM.org                      |
|    \\/     M anipulation  |                                                 |
\*---------------------------------------------------------------------------*/
FoamFile
{
    version     2.0;
    format      ascii;
    class       extendedFeatureEdgeMesh;
    location    "constant/extendedFeatureEdgeMesh";
    object      muscle.extendedFeatureEdgeMesh;
}
// * * * * * * * * * * * * * * * * * * * * * * * * * * * * * * * * * * * * * //

// points

94
(
(-0.067 0 0)
(-0.066909 -0.003468 2.7e-05)
(-0.066989 0.001156 2.7e-05)
(-0.013779 -0.065568 0)
(-0.009223 -0.066362 0)
(-0.01827 -0.064461 0)
(-0.026969 -0.061332 0)
(-0.022674 -0.063047 0)
(-0.031136 -0.059326 0)
(-0.035155 -0.057036 0)
(-0.039006 -0.054475 0)
(-0.042672 -0.051654 0)
(-0.046134 -0.048587 0)
(-0.049376 -0.045288 0)
(-0.057634 -0.034165 0)
(-0.05514 -0.03806 0)
(-0.059854 -0.030108 0)
(-0.063429 -0.021582 0)
(-0.061789 -0.025907 0)
(-0.064767 -0.017155 0)
(-0.065796 -0.012645 0)
(-0.066512 -0.008076 0)
(-0.06699 0.001156 0)
(-0.066751 0.005775 0)
(-0.066193 0.010367 0)
(-0.06532 0.014909 0)
(-0.064136 0.01938 0)
(-0.062646 0.023759 0)
(-0.060858 0.028024 0)
(-0.053793 0.039941 0)
(-0.056421 0.036134 0)
(-0.006927 0.066641 0)
(-0.011508 0.066004 0)
(-0.002313 0.06696 0)
(0.002313 0.06696 0)
(0.011508 0.066004 0)
(0.006927 0.066641 0)
(0.016034 0.065053 0)
(0.020484 0.063792 0)
(0.033166 0.058215 0)
(0.02907 0.060365 0)
(0.037103 0.055789 0)
(0.040863 0.053096 0)
(0.044429 0.05015 0)
(0.047783 0.046966 0)
(0.05091 0.043557 0)
(0.053793 0.039941 0)
(0.066751 0.005775 0)
(0.066193 0.010367 0)
(0.065796 -0.012645 0)
(0.066512 -0.008076 0)
(0.064767 -0.017155 0)
(0.063429 -0.021582 0)
(0.061789 -0.025907 0)
(0.059854 -0.030108 0)
(0.057634 -0.034165 0)
(0.05514 -0.03806 0)
(0.052383 -0.041774 0)
(0.049376 -0.045288 0)
(0.01827 -0.064461 0)
(0.022674 -0.063047 0)
(0.013779 -0.065568 0)
(0 -0.067 0)
(0.004622 -0.06684 0)
(0.009223 -0.066362 0)
(0.026969 -0.061332 0)
(0.031136 -0.059326 0)
(0.035155 -0.057036 0)
(0.039006 -0.054475 0)
(0.042672 -0.051654 0)
(0.046134 -0.048587 0)
(0.06691 -0.003468 0)
(0.06699 0.001156 0)
(0.06532 0.014909 0)
(0.064136 0.01938 0)
(0.062646 0.023759 0)
(0.060858 0.028024 0)
(0.058779 0.032156 0)
(0.056421 0.036134 0)
(0.024836 0.062227 0)
(-0.016034 0.065053 0)
(-0.020484 0.063792 0)
(-0.024836 0.062227 0)
(-0.02907 0.060365 0)
(-0.033166 0.058215 0)
(-0.037103 0.055789 0)
(-0.040863 0.053096 0)
(-0.044429 0.05015 0)
(-0.047783 0.046966 0)
(-0.05091 0.043557 0)
(-0.058779 0.032156 0)
(-0.06691 -0.003468 0)
(-0.052383 -0.041774 0)
(-0.004622 -0.06684 0)
)

// edges

95
(
(1 2)
(3 4)
(5 3)
(6 7)
(8 6)
(9 8)
(10 9)
(11 10)
(12 11)
(13 12)
(14 15)
(16 14)
(17 18)
(19 17)
(20 19)
(21 20)
(22 0)
(23 22)
(24 23)
(25 24)
(26 25)
(27 26)
(28 27)
(29 30)
(31 32)
(33 31)
(34 33)
(35 36)
(37 35)
(38 37)
(39 40)
(41 39)
(42 41)
(43 42)
(44 43)
(45 44)
(46 45)
(47 48)
(49 50)
(51 49)
(52 51)
(53 52)
(54 53)
(55 54)
(56 55)
(57 56)
(58 57)
(59 60)
(61 59)
(62 63)
(63 64)
(64 61)
(60 65)
(65 66)
(66 67)
(67 68)
(68 69)
(69 70)
(70 58)
(50 71)
(71 72)
(72 47)
(48 73)
(73 74)
(74 75)
(75 76)
(76 77)
(77 78)
(78 46)
(40 79)
(79 38)
(36 34)
(32 80)
(80 81)
(81 82)
(82 83)
(83 84)
(84 85)
(85 86)
(86 87)
(87 88)
(88 89)
(89 29)
(30 90)
(90 28)
(0 91)
(91 21)
(18 16)
(15 92)
(92 13)
(7 5)
(4 93)
(93 62)
(0 1)
(0 2)
)

// concaveStart mixedStart nonFeatureStart
0 1 1
// internalStart flatStart openStart multipleStart
1 95 95 95
// normals

186
(
(0.972257 0.0168204 -0.233311)
(0.656693 0.011361 -0.754072)
(-0.17075 -0.979769 0.104387)
(0.171574 0.984498 -0.0364038)
(-0.238007 -0.965574 0.104969)
(0.239175 0.970313 -0.0358792)
(-0.368785 -0.923574 0.104921)
(0.370404 0.927629 -0.0480228)
(-0.431391 -0.896115 0.104306)
(0.433516 0.90053 -0.0332989)
(-0.492344 -0.864073 0.104762)
(0.49481 0.868403 -0.0322307)
(-0.550715 -0.828114 0.104598)
(0.553488 0.832284 -0.0308902)
(-0.606502 -0.788174 0.104585)
(0.609584 0.79218 -0.0292924)
(-0.65948 -0.744414 0.104564)
(0.66221 0.747496 -0.052218)
(-0.709329 -0.697073 0.104601)
(0.712265 0.699958 -0.0523163)
(-0.837507 -0.536262 0.104903)
(0.842154 0.539238 0)
(-0.872479 -0.477423 0.104149)
(0.87725 0.480034 0)
(-0.929867 -0.352597 0.10499)
(0.934476 0.354345 -0.0345541)
(-0.951952 -0.287715 0.104917)
(0.956636 0.289131 -0.0353735)
(-0.969566 -0.221216 0.104907)
(0.97398 0.222223 -0.0445007)
(-0.982524 -0.15397 0.104596)
(0.987274 0.154714 -0.0367788)
(-0.99446 0.00860146 0.104761)
(0.99927 -0.00864306 -0.0372257)
(-0.993177 0.0513897 0.104682)
(0.997974 -0.0516379 -0.0371774)
(-0.987209 0.119962 0.105013)
(0.99202 -0.120547 -0.0369556)
(-0.97663 0.187714 0.104672)
(0.981378 -0.188627 -0.0362884)
(-0.961359 0.254585 0.104765)
(0.966061 -0.255831 -0.035722)
(-0.941511 0.320358 0.104533)
(0.946118 -0.321926 -0.0349846)
(-0.917197 0.384513 0.104398)
(0.921157 -0.386174 -0.0483678)
(-0.818436 0.564973 0.104726)
(0.822578 -0.567832 -0.0305299)
(-0.136976 0.985064 0.104338)
(0.137634 -0.989797 -0.0368728)
(-0.0685935 0.992144 0.104621)
(0.0689252 -0.996941 -0.0368638)
(0 0.994498 0.104754)
(0 -0.999317 -0.0369517)
(0.136972 0.985032 0.104642)
(-0.137634 -0.989797 -0.0368728)
(0.204506 0.973286 0.104365)
(-0.205494 -0.97799 -0.0361631)
(0.271146 0.956857 0.104423)
(-0.272464 -0.961509 -0.0355537)
(0.462223 0.880588 0.104474)
(-0.464697 -0.885303 -0.0171831)
(0.521737 0.846694 0.104399)
(-0.524505 -0.851186 -0.0193946)
(0.579047 0.808472 0.105249)
(-0.581502 -0.8119 -0.051716)
(0.633413 0.766718 0.104551)
(-0.636645 -0.77063 -0.0284956)
(0.6847 0.721257 0.104758)
(-0.688241 -0.724987 -0.0268078)
(0.732856 0.672232 0.105009)
(-0.736698 -0.675757 -0.0250807)
(0.777588 0.619963 0.104898)
(-0.780848 -0.622562 -0.0518938)
(0.987246 0.119967 0.104662)
(-0.99203 -0.120548 -0.0366822)
(0.982506 -0.153967 0.104771)
(-0.987274 0.154714 -0.0367788)
(0.969599 -0.221223 0.104588)
(-0.974303 0.222297 -0.0362956)
(0.951953 -0.287716 0.104905)
(-0.956208 0.289002 -0.0463079)
(0.929877 -0.352601 0.104887)
(-0.933972 0.354153 -0.0476554)
(0.903262 -0.416046 0.104988)
(-0.90719 0.417855 -0.049025)
(0.872423 -0.477392 0.104758)
(-0.876142 0.479427 -0.0502457)
(0.837574 -0.536306 0.10414)
(-0.842154 0.539238 0)
(0.798518 -0.592761 0.1049)
(-0.802594 0.595787 -0.0296775)
(0.755611 -0.646591 0.104747)
(-0.759491 0.649911 -0.0280837)
(0.304014 -0.946871 0.104934)
(-0.305512 0.951538 -0.035185)
(0.238012 -0.965593 0.104791)
(-0.239175 0.970313 -0.0358792)
(0.0344079 -0.993951 0.104292)
(-0.034573 0.99872 -0.0369296)
(0.102771 -0.989223 0.104292)
(-0.103264 0.993975 -0.0367542)
(0.17075 -0.979769 0.104387)
(-0.171574 0.984498 -0.0364038)
(0.368785 -0.923574 0.104921)
(-0.370404 0.927629 -0.0480228)
(0.431391 -0.896115 0.104306)
(-0.433516 0.90053 -0.0332989)
(0.492344 -0.864073 0.104762)
(-0.49481 0.868403 -0.0322307)
(0.550715 -0.828114 0.104598)
(-0.553488 0.832284 -0.0308902)
(0.606502 -0.788174 0.104585)
(-0.609584 0.79218 -0.0292924)
(0.65948 -0.744414 0.104564)
(-0.66221 0.747496 -0.0522298)
(0.709329 -0.697073 0.104601)
(-0.712265 0.699958 -0.0523163)
(0.990806 -0.0855764 0.104784)
(-0.995615 0.0859918 -0.0368148)
(0.994342 -0.0172041 0.104828)
(-0.999168 0.0172876 -0.0369462)
(0.993177 0.0513897 0.104682)
(-0.997974 -0.0516379 -0.0371774)
(0.97663 0.187714 0.104672)
(-0.981378 -0.188627 -0.0362884)
(0.961359 0.254585 0.104765)
(-0.966061 -0.255831 -0.035722)
(0.941511 0.320358 0.104533)
(-0.945657 -0.321769 -0.0468877)
(0.917197 0.384513 0.104398)
(-0.921701 -0.386402 -0.0340817)
(0.888353 0.446971 0.105101)
(-0.892813 -0.449215 -0.0330135)
(0.855513 0.507114 0.104556)
(-0.859118 -0.509251 -0.0507869)
(0.818436 0.564973 0.104726)
(-0.822779 -0.567971 -0.0210802)
(0.400361 0.910381 0.104488)
(-0.402334 -0.914868 -0.033829)
(0.336524 0.935818 0.104866)
(-0.338185 -0.940437 -0.0347745)
(0.0685935 0.992144 0.104621)
(-0.0689252 -0.996941 -0.0368638)
(-0.204506 0.973286 0.104365)
(0.205494 -0.97799 -0.0361631)
(-0.271146 0.956857 0.104423)
(0.272464 -0.961509 -0.0355537)
(-0.336537 0.935854 0.104503)
(0.338185 -0.940437 -0.0347745)
(-0.400346 0.910346 0.104847)
(0.402334 -0.914868 -0.033829)
(-0.462223 0.880588 0.104474)
(0.464697 -0.885303 -0.0171831)
(-0.521737 0.846694 0.104399)
(0.524505 -0.851186 -0.0193946)
(-0.579047 0.808472 0.105249)
(0.582018 -0.81262 -0.0300482)
(-0.633413 0.766718 0.104551)
(0.636645 -0.77063 -0.0284956)
(-0.6847 0.721257 0.104758)
(0.688241 -0.724987 -0.0268078)
(-0.732856 0.672232 0.105009)
(0.736698 -0.675757 -0.0250807)
(-0.777588 0.619963 0.104898)
(0.781692 -0.623235 -0.0231313)
(-0.855496 0.507104 0.104743)
(0.85979 -0.50965 -0.031911)
(-0.888406 0.446997 0.10454)
(0.892193 -0.448903 -0.0497747)
(-0.994153 -0.0258007 0.104853)
(0.998981 0.025926 -0.0369393)
(-0.990803 -0.0855761 0.104815)
(0.995615 0.0859918 -0.0368148)
(-0.903262 -0.416046 0.104988)
(0.907186 0.417853 -0.0491211)
(-0.798518 -0.592761 0.1049)
(0.802594 0.595787 -0.0296775)
(-0.755611 -0.646591 0.104747)
(0.759491 0.649911 -0.0280837)
(-0.304014 -0.946871 0.104934)
(0.305371 0.951098 -0.0464815)
(-0.10277 -0.989213 0.104385)
(0.103264 0.993975 -0.0367542)
(-0.0344079 -0.993951 0.104292)
(0.034573 0.99872 -0.0369296)
)

// normal volume types

186
(
0
0
0
0
0
0
0
0
0
0
0
0
0
0
0
0
0
0
0
0
0
0
0
0
0
0
0
0
0
0
0
0
0
0
0
0
0
0
0
0
0
0
0
0
0
0
0
0
0
0
0
0
0
0
0
0
0
0
0
0
0
0
0
0
0
0
0
0
0
0
0
0
0
0
0
0
0
0
0
0
0
0
0
0
0
0
0
0
0
0
0
0
0
0
0
0
0
0
0
0
0
0
0
0
0
0
0
0
0
0
0
0
0
0
0
0
0
0
0
0
0
0
0
0
0
0
0
0
0
0
0
0
0
0
0
0
0
0
0
0
0
0
0
0
0
0
0
0
0
0
0
0
0
0
0
0
0
0
0
0
0
0
0
0
0
0
0
0
0
0
0
0
0
0
0
0
0
0
0
0
0
0
0
0
0
0
)

// normalDirections

95
(
2(1 -1)
2(1 -1)
2(1 -1)
2(1 -1)
2(1 -1)
2(1 -1)
2(1 -1)
2(1 -1)
2(1 -1)
2(1 -1)
2(1 -1)
2(1 -1)
2(1 -1)
2(1 -1)
2(1 -1)
2(1 -1)
2(1 -1)
2(1 -1)
2(1 -1)
2(1 -1)
2(1 -1)
2(1 -1)
2(1 -1)
2(1 -1)
2(1 -1)
2(1 -1)
2(1 -1)
2(1 -1)
2(1 -1)
2(1 -1)
2(1 -1)
2(1 -1)
2(1 -1)
2(1 -1)
2(1 -1)
2(1 -1)
2(1 -1)
2(1 -1)
2(1 -1)
2(1 -1)
2(1 -1)
2(1 -1)
2(1 -1)
2(1 -1)
2(1 -1)
2(1 -1)
2(1 -1)
2(1 -1)
2(1 -1)
2(1 -1)
2(1 -1)
2(1 -1)
2(1 -1)
2(1 -1)
2(1 -1)
2(1 -1)
2(1 -1)
2(1 -1)
2(1 -1)
2(1 -1)
2(1 -1)
2(1 -1)
2(1 -1)
2(1 -1)
2(1 -1)
2(1 -1)
2(1 -1)
2(1 -1)
2(1 -1)
2(1 -1)
2(1 -1)
2(1 -1)
2(1 -1)
2(1 -1)
2(1 -1)
2(1 -1)
2(1 -1)
2(1 -1)
2(1 -1)
2(1 -1)
2(1 -1)
2(1 -1)
2(1 -1)
2(1 -1)
2(1 -1)
2(1 -1)
2(1 -1)
2(1 -1)
2(1 -1)
2(1 -1)
2(1 -1)
2(1 -1)
2(1 -1)
2(1 -1)
2(1 -1)
)

// edgeNormals

95
(
2(0 1)
2(2 3)
2(4 5)
2(6 7)
2(8 9)
2(10 11)
2(12 13)
2(14 15)
2(16 17)
2(18 19)
2(20 21)
2(22 23)
2(24 25)
2(26 27)
2(28 29)
2(30 31)
2(32 33)
2(34 35)
2(36 37)
2(38 39)
2(40 41)
2(42 43)
2(44 45)
2(46 47)
2(48 49)
2(50 51)
2(52 53)
2(54 55)
2(56 57)
2(58 59)
2(60 61)
2(62 63)
2(64 65)
2(66 67)
2(68 69)
2(70 71)
2(72 73)
2(74 75)
2(76 77)
2(78 79)
2(80 81)
2(82 83)
2(84 85)
2(86 87)
2(88 89)
2(90 91)
2(92 93)
2(94 95)
2(96 97)
2(98 99)
2(100 101)
2(102 103)
2(104 105)
2(106 107)
2(108 109)
2(110 111)
2(112 113)
2(114 115)
2(116 117)
2(118 119)
2(120 121)
2(122 123)
2(124 125)
2(126 127)
2(128 129)
2(130 131)
2(132 133)
2(134 135)
2(136 137)
2(138 139)
2(140 141)
2(142 143)
2(144 145)
2(146 147)
2(148 149)
2(150 151)
2(152 153)
2(154 155)
2(156 157)
2(158 159)
2(160 161)
2(162 163)
2(164 165)
2(166 167)
2(168 169)
2(170 171)
2(172 173)
2(174 175)
2(176 177)
2(178 179)
2(180 181)
2(182 183)
2(184 185)
2(171 1)
2(1 33)
)

// featurePointNormals
1(5(32 33 170 171 1))
// featurePointEdges
1(4(16 94 93 85))
// regionEdges
0()


// ************************************************************************* //
