/*--------------------------------*- C++ -*----------------------------------*\
| =========                 |                                                 |
| \\      /  F ield         | OpenFOAM: The Open Source CFD Toolbox           |
|  \\    /   O peration     | Version:  5                                     |
|   \\  /    A nd           | Web:      www.OpenFOAM.org                      |
|    \\/     M anipulation  |                                                 |
\*---------------------------------------------------------------------------*/
FoamFile
{
    version     2.0;
    format      ascii;
    class       dictionary;
    object      changeDictionaryDict;
}
// * * * * * * * * * * * * * * * * * * * * * * * * * * * * * * * * * * * * * //

boundary
{
       
}

T
{
    internalField   uniform 30;

    boundaryField
    {
       
        "tissue_to_.*"
        {
            type            compressible::turbulentTemperatureCoupledBaffleMixed;
            Tnbr            T;
            kappaMethod     solidThermo;
            value           uniform 27;
        }
	
    
     adiabatic_wall
    {
        type            zeroGradient;
    }

     skin
    {
        type            externalWallHeatFluxTemperature;

        mode            coefficient;

        Ta              constant 22;
        h               uniform 13.5;
       // thicknessLayers (0.1 0.2 0.3 0.4);
       // kappaLayers     (1 2 3 4);

        kappaMethod     solidThermo;

        value           uniform 27;
    }

    
       
    }
}

// ************************************************************************* //
