/*--------------------------------*- C++ -*----------------------------------*\
| =========                 |                                                 |
| \\      /  F ield         | OpenFOAM: The Open Source CFD Toolbox           |
|  \\    /   O peration     | Version:  5.x                                   |
|   \\  /    A nd           | Web:      www.OpenFOAM.org                      |
|    \\/     M anipulation  |                                                 |
\*---------------------------------------------------------------------------*/
FoamFile
{
    version     2.0;
    format      ascii;
    class       featureEdgeMesh;
    location    "constant/triSurface";
    object      gland.eMesh;
}
// * * * * * * * * * * * * * * * * * * * * * * * * * * * * * * * * * * * * * //


// points:

183
(
(0.06697 1e-06 0)
(0.06699 0.001156 0)
(0.06681 0.004621 0)
(0.066751 0.005775 0)
(0.066332 0.009219 0)
(0.066193 0.010367 0)
(0.065538 0.013774 0)
(0.06532 0.014909 0)
(0.064432 0.018262 0)
(0.064136 0.01938 0)
(0.063019 0.022664 0)
(0.062646 0.023759 0)
(0.061305 0.026958 0)
(0.060858 0.028024 0)
(0.059299 0.031123 0)
(0.058779 0.032156 0)
(0.05701 0.03514 0)
(0.056421 0.036134 0)
(0.05445 0.038989 0)
(0.053793 0.039941 0)
(0.05163 0.042653 0)
(0.05091 0.043557 0)
(0.048565 0.046114 0)
(0.047783 0.046966 0)
(0.045268 0.049354 0)
(0.044429 0.05015 0)
(0.041755 0.05236 0)
(0.040863 0.053096 0)
(0.038043 0.055116 0)
(0.037103 0.055789 0)
(0.03415 0.057609 0)
(0.033166 0.058215 0)
(0.030094 0.059828 0)
(0.02907 0.060365 0)
(0.025895 0.061761 0)
(0.024836 0.062227 0)
(0.021572 0.063401 0)
(0.020484 0.063792 0)
(0.017146 0.064738 0)
(0.016034 0.065053 0)
(0.012639 0.065767 0)
(0.011508 0.066004 0)
(0.008072 0.066482 0)
(0.006927 0.066641 0)
(0.003466 0.06688 0)
(0.002313 0.06696 0)
(-0.001156 0.06696 0)
(-0.002313 0.06696 0)
(-0.005773 0.066721 0)
(-0.006927 0.066641 0)
(-0.010363 0.066163 0)
(-0.011508 0.066004 0)
(-0.014903 0.065291 0)
(-0.016034 0.065053 0)
(-0.019372 0.064107 0)
(-0.020484 0.063792 0)
(-0.023748 0.062618 0)
(-0.024836 0.062227 0)
(-0.028012 0.06083 0)
(-0.02907 0.060365 0)
(-0.032142 0.058753 0)
(-0.033166 0.058215 0)
(-0.036119 0.056395 0)
(-0.037103 0.055789 0)
(-0.039923 0.053769 0)
(-0.040863 0.053096 0)
(-0.043538 0.050887 0)
(-0.044429 0.05015 0)
(-0.046945 0.047762 0)
(-0.047783 0.046966 0)
(-0.050128 0.044409 0)
(-0.05091 0.043557 0)
(-0.053073 0.040845 0)
(-0.053793 0.039941 0)
(-0.055764 0.037086 0)
(-0.056421 0.036134 0)
(-0.05819 0.03315 0)
(-0.058779 0.032156 0)
(-0.060338 0.029057 0)
(-0.060858 0.028024 0)
(-0.062199 0.024825 0)
(-0.062646 0.023759 0)
(-0.063764 0.020474 0)
(-0.064136 0.01938 0)
(-0.065024 0.016026 0)
(-0.06532 0.014909 0)
(-0.065975 0.011502 0)
(-0.066193 0.010367 0)
(-0.066611 0.006923 0)
(-0.066751 0.005775 0)
(-0.06693 0.002311 0)
(-0.06699 0.001156 0)
(-0.067 0 0)
(-0.06694 -0.002312 0)
(-0.06691 -0.003468 0)
(-0.066611 -0.006924 0)
(-0.066512 -0.008076 0)
(-0.065975 -0.011503 0)
(-0.065796 -0.012645 0)
(-0.065024 -0.016027 0)
(-0.064767 -0.017155 0)
(-0.063763 -0.020475 0)
(-0.063429 -0.021582 0)
(-0.062199 -0.024826 0)
(-0.061789 -0.025907 0)
(-0.060338 -0.029058 0)
(-0.059854 -0.030108 0)
(-0.058189 -0.033151 0)
(-0.057634 -0.034165 0)
(-0.055763 -0.037087 0)
(-0.05514 -0.03806 0)
(-0.053072 -0.040846 0)
(-0.052383 -0.041774 0)
(-0.050127 -0.04441 0)
(-0.049376 -0.045288 0)
(-0.046944 -0.047762 0)
(-0.046134 -0.048587 0)
(-0.043537 -0.050887 0)
(-0.042672 -0.051654 0)
(-0.039923 -0.05377 0)
(-0.039006 -0.054475 0)
(-0.036118 -0.056396 0)
(-0.035155 -0.057036 0)
(-0.032141 -0.058753 0)
(-0.031136 -0.059326 0)
(-0.028011 -0.060831 0)
(-0.026969 -0.061332 0)
(-0.023747 -0.062618 0)
(-0.022674 -0.063047 0)
(-0.019371 -0.064107 0)
(-0.01827 -0.064461 0)
(-0.014902 -0.065291 0)
(-0.013779 -0.065568 0)
(-0.010362 -0.066164 0)
(-0.009223 -0.066362 0)
(-0.005772 -0.066721 0)
(-0.004622 -0.06684 0)
(-0.001155 -0.06696 0)
(0 -0.067 0)
(0.003467 -0.06688 0)
(0.004622 -0.06684 0)
(0.008073 -0.066482 0)
(0.009223 -0.066362 0)
(0.01264 -0.065766 0)
(0.013779 -0.065568 0)
(0.017147 -0.064738 0)
(0.01827 -0.064461 0)
(0.021573 -0.0634 0)
(0.022674 -0.063047 0)
(0.025896 -0.061761 0)
(0.026969 -0.061332 0)
(0.030095 -0.059827 0)
(0.031136 -0.059326 0)
(0.034151 -0.057608 0)
(0.035155 -0.057036 0)
(0.038044 -0.055115 0)
(0.039006 -0.054475 0)
(0.041756 -0.052359 0)
(0.042672 -0.051654 0)
(0.045268 -0.049353 0)
(0.046134 -0.048587 0)
(0.048565 -0.046113 0)
(0.049376 -0.045288 0)
(0.051631 -0.042652 0)
(0.052383 -0.041774 0)
(0.054451 -0.038989 0)
(0.05514 -0.03806 0)
(0.057011 -0.035139 0)
(0.057634 -0.034165 0)
(0.059299 -0.031122 0)
(0.059854 -0.030108 0)
(0.061305 -0.026957 0)
(0.061789 -0.025907 0)
(0.063019 -0.022663 0)
(0.063429 -0.021582 0)
(0.064432 -0.018261 0)
(0.064767 -0.017155 0)
(0.065539 -0.013773 0)
(0.065796 -0.012645 0)
(0.066333 -0.009218 0)
(0.066512 -0.008076 0)
(0.066811 -0.00462 0)
(0.06691 -0.003468 0)
)


// edges:

183
(
(0 1)
(2 3)
(4 5)
(6 7)
(8 9)
(10 11)
(12 13)
(14 15)
(16 17)
(18 19)
(20 21)
(22 23)
(24 25)
(26 27)
(28 29)
(30 31)
(32 33)
(34 35)
(36 37)
(38 39)
(40 41)
(42 43)
(44 45)
(46 47)
(48 49)
(50 51)
(52 53)
(54 55)
(56 57)
(58 59)
(60 61)
(62 63)
(64 65)
(66 67)
(68 69)
(70 71)
(72 73)
(74 75)
(76 77)
(78 79)
(80 81)
(82 83)
(84 85)
(86 87)
(88 89)
(90 91)
(91 92)
(93 94)
(95 96)
(97 98)
(99 100)
(101 102)
(103 104)
(105 106)
(107 108)
(109 110)
(111 112)
(113 114)
(115 116)
(117 118)
(119 120)
(121 122)
(123 124)
(125 126)
(127 128)
(129 130)
(131 132)
(133 134)
(135 136)
(137 138)
(139 140)
(141 142)
(143 144)
(145 146)
(147 148)
(149 150)
(151 152)
(153 154)
(155 156)
(157 158)
(159 160)
(161 162)
(163 164)
(165 166)
(167 168)
(169 170)
(171 172)
(173 174)
(175 176)
(177 178)
(179 180)
(181 182)
(182 0)
(180 181)
(178 179)
(176 177)
(174 175)
(172 173)
(170 171)
(168 169)
(166 167)
(164 165)
(162 163)
(160 161)
(158 159)
(156 157)
(154 155)
(152 153)
(150 151)
(148 149)
(146 147)
(144 145)
(142 143)
(140 141)
(138 139)
(136 137)
(134 135)
(132 133)
(130 131)
(128 129)
(126 127)
(124 125)
(122 123)
(120 121)
(118 119)
(116 117)
(114 115)
(112 113)
(110 111)
(108 109)
(106 107)
(104 105)
(102 103)
(100 101)
(98 99)
(96 97)
(94 95)
(92 93)
(89 90)
(87 88)
(85 86)
(83 84)
(81 82)
(79 80)
(77 78)
(75 76)
(73 74)
(71 72)
(69 70)
(67 68)
(65 66)
(63 64)
(61 62)
(59 60)
(57 58)
(55 56)
(53 54)
(51 52)
(49 50)
(47 48)
(45 46)
(43 44)
(41 42)
(39 40)
(37 38)
(35 36)
(33 34)
(31 32)
(29 30)
(27 28)
(25 26)
(23 24)
(21 22)
(19 20)
(17 18)
(15 16)
(13 14)
(11 12)
(9 10)
(7 8)
(5 6)
(3 4)
(1 2)
)

// * * * * * * * * * * * * * * * * * * * * * * * * * * * * * * * * * * * * * //


// ************************************************************************* //
