/*--------------------------------*- C++ -*----------------------------------*\
| =========                 |                                                 |
| \\      /  F ield         | OpenFOAM: The Open Source CFD Toolbox           |
|  \\    /   O peration     | Version:  5.x                                   |
|   \\  /    A nd           | Web:      www.OpenFOAM.org                      |
|    \\/     M anipulation  |                                                 |
\*---------------------------------------------------------------------------*/
FoamFile
{
    version     2.0;
    format      ascii;
    class       featureEdgeMesh;
    location    "constant/triSurface";
    object      muscle.eMesh;
}
// * * * * * * * * * * * * * * * * * * * * * * * * * * * * * * * * * * * * * //


// points:

94
(
(-0.067 0 0)
(-0.066909 -0.003468 2.7e-05)
(-0.066989 0.001156 2.7e-05)
(-0.013779 -0.065568 0)
(-0.009223 -0.066362 0)
(-0.01827 -0.064461 0)
(-0.026969 -0.061332 0)
(-0.022674 -0.063047 0)
(-0.031136 -0.059326 0)
(-0.035155 -0.057036 0)
(-0.039006 -0.054475 0)
(-0.042672 -0.051654 0)
(-0.046134 -0.048587 0)
(-0.049376 -0.045288 0)
(-0.057634 -0.034165 0)
(-0.05514 -0.03806 0)
(-0.059854 -0.030108 0)
(-0.063429 -0.021582 0)
(-0.061789 -0.025907 0)
(-0.064767 -0.017155 0)
(-0.065796 -0.012645 0)
(-0.066512 -0.008076 0)
(-0.06699 0.001156 0)
(-0.066751 0.005775 0)
(-0.066193 0.010367 0)
(-0.06532 0.014909 0)
(-0.064136 0.01938 0)
(-0.062646 0.023759 0)
(-0.060858 0.028024 0)
(-0.053793 0.039941 0)
(-0.056421 0.036134 0)
(-0.006927 0.066641 0)
(-0.011508 0.066004 0)
(-0.002313 0.06696 0)
(0.002313 0.06696 0)
(0.011508 0.066004 0)
(0.006927 0.066641 0)
(0.016034 0.065053 0)
(0.020484 0.063792 0)
(0.033166 0.058215 0)
(0.02907 0.060365 0)
(0.037103 0.055789 0)
(0.040863 0.053096 0)
(0.044429 0.05015 0)
(0.047783 0.046966 0)
(0.05091 0.043557 0)
(0.053793 0.039941 0)
(0.066751 0.005775 0)
(0.066193 0.010367 0)
(0.065796 -0.012645 0)
(0.066512 -0.008076 0)
(0.064767 -0.017155 0)
(0.063429 -0.021582 0)
(0.061789 -0.025907 0)
(0.059854 -0.030108 0)
(0.057634 -0.034165 0)
(0.05514 -0.03806 0)
(0.052383 -0.041774 0)
(0.049376 -0.045288 0)
(0.01827 -0.064461 0)
(0.022674 -0.063047 0)
(0.013779 -0.065568 0)
(0 -0.067 0)
(0.004622 -0.06684 0)
(0.009223 -0.066362 0)
(0.026969 -0.061332 0)
(0.031136 -0.059326 0)
(0.035155 -0.057036 0)
(0.039006 -0.054475 0)
(0.042672 -0.051654 0)
(0.046134 -0.048587 0)
(0.06691 -0.003468 0)
(0.06699 0.001156 0)
(0.06532 0.014909 0)
(0.064136 0.01938 0)
(0.062646 0.023759 0)
(0.060858 0.028024 0)
(0.058779 0.032156 0)
(0.056421 0.036134 0)
(0.024836 0.062227 0)
(-0.016034 0.065053 0)
(-0.020484 0.063792 0)
(-0.024836 0.062227 0)
(-0.02907 0.060365 0)
(-0.033166 0.058215 0)
(-0.037103 0.055789 0)
(-0.040863 0.053096 0)
(-0.044429 0.05015 0)
(-0.047783 0.046966 0)
(-0.05091 0.043557 0)
(-0.058779 0.032156 0)
(-0.06691 -0.003468 0)
(-0.052383 -0.041774 0)
(-0.004622 -0.06684 0)
)


// edges:

95
(
(1 2)
(3 4)
(5 3)
(6 7)
(8 6)
(9 8)
(10 9)
(11 10)
(12 11)
(13 12)
(14 15)
(16 14)
(17 18)
(19 17)
(20 19)
(21 20)
(22 0)
(23 22)
(24 23)
(25 24)
(26 25)
(27 26)
(28 27)
(29 30)
(31 32)
(33 31)
(34 33)
(35 36)
(37 35)
(38 37)
(39 40)
(41 39)
(42 41)
(43 42)
(44 43)
(45 44)
(46 45)
(47 48)
(49 50)
(51 49)
(52 51)
(53 52)
(54 53)
(55 54)
(56 55)
(57 56)
(58 57)
(59 60)
(61 59)
(62 63)
(63 64)
(64 61)
(60 65)
(65 66)
(66 67)
(67 68)
(68 69)
(69 70)
(70 58)
(50 71)
(71 72)
(72 47)
(48 73)
(73 74)
(74 75)
(75 76)
(76 77)
(77 78)
(78 46)
(40 79)
(79 38)
(36 34)
(32 80)
(80 81)
(81 82)
(82 83)
(83 84)
(84 85)
(85 86)
(86 87)
(87 88)
(88 89)
(89 29)
(30 90)
(90 28)
(0 91)
(91 21)
(18 16)
(15 92)
(92 13)
(7 5)
(4 93)
(93 62)
(0 1)
(0 2)
)

// * * * * * * * * * * * * * * * * * * * * * * * * * * * * * * * * * * * * * //


// ************************************************************************* //
