/*--------------------------------*- C++ -*----------------------------------*\
| =========                 |                                                 |
| \\      /  F ield         | OpenFOAM: The Open Source CFD Toolbox           |
|  \\    /   O peration     | Version:  5.x                                   |
|   \\  /    A nd           | Web:      www.OpenFOAM.org                      |
|    \\/     M anipulation  |                                                 |
\*---------------------------------------------------------------------------*/
FoamFile
{
    version     2.0;
    format      ascii;
    class       featureEdgeMesh;
    location    "constant/triSurface";
    object      tissue.eMesh;
}
// * * * * * * * * * * * * * * * * * * * * * * * * * * * * * * * * * * * * * //


// points:

134
(
(0.036 0 0)
(0.035842 0.003371 0)
(0.035369 0.006713 0)
(0.034585 0.009995 0)
(0.033497 0.01319 0)
(0.032114 0.016268 0)
(0.03045 0.019204 0)
(0.028518 0.021971 0)
(0.026335 0.024545 0)
(0.023921 0.026903 0)
(0.021297 0.029025 0)
(0.018485 0.030892 0)
(0.015511 0.032487 0)
(0.012401 0.033797 0)
(0.009182 0.034809 0)
(0.005882 0.035516 0)
(0.00253 0.035911 0)
(-0.000844 0.03599 0)
(-0.00421 0.035753 0)
(-0.00754 0.035202 0)
(-0.010803 0.034341 0)
(-0.013971 0.033178 0)
(-0.017017 0.031724 0)
(-0.019913 0.029991 0)
(-0.022634 0.027995 0)
(-0.025156 0.025752 0)
(-0.027457 0.023284 0)
(-0.029516 0.02061 0)
(-0.031317 0.017756 0)
(-0.032842 0.014745 0)
(-0.034078 0.011605 0)
(-0.035015 0.008363 0)
(-0.035644 0.005047 0)
(-0.03596 0.001687 0)
(-0.03596 -0.001687 0)
(-0.035644 -0.005047 0)
(-0.035015 -0.008363 0)
(-0.034078 -0.011605 0)
(-0.032842 -0.014745 0)
(-0.031317 -0.017756 0)
(-0.029516 -0.02061 0)
(-0.027457 -0.023284 0)
(-0.025156 -0.025752 0)
(-0.022634 -0.027995 0)
(-0.019913 -0.029991 0)
(-0.017017 -0.031724 0)
(-0.013971 -0.033178 0)
(-0.010803 -0.034341 0)
(-0.00754 -0.035202 0)
(-0.00421 -0.035753 0)
(-0.000844 -0.03599 0)
(0 -0.036 0)
(0.00253 -0.035911 0)
(0.005882 -0.035516 0)
(0.009182 -0.034809 0)
(0.012401 -0.033797 0)
(0.015511 -0.032487 0)
(0.018485 -0.030892 0)
(0.021297 -0.029025 0)
(0.023921 -0.026903 0)
(0.026335 -0.024545 0)
(0.028518 -0.021971 0)
(0.03045 -0.019204 0)
(0.032114 -0.016268 0)
(0.033497 -0.01319 0)
(0.034585 -0.009995 0)
(0.035369 -0.006713 0)
(0.035842 -0.003371 0)
(0.033344 -0.003233 0)
(0.0335 0 0)
(0.032876 -0.006436 0)
(0.01628 0.029278 0)
(0.013379 0.030713 0)
(0.028022 0.018358 0)
(0.026119 0.020977 0)
(0.032101 -0.009579 0)
(0.031027 -0.012633 0)
(0.029663 -0.015568 0)
(0.028022 -0.018358 0)
(0.026119 -0.020977 0)
(0.023973 -0.0234 0)
(0.021602 -0.025605 0)
(0.000809 -0.03349 0)
(0.004038 -0.033256 0)
(0.01903 0.02757 0)
(0.029663 0.015568 0)
(0.032101 0.009579 0)
(0.031027 0.012633 0)
(0.01903 -0.02757 0)
(0.01628 -0.029278 0)
(0.010352 -0.03186 0)
(0.013379 -0.030713 0)
(0.007229 -0.032711 0)
(-0.002427 -0.033412 0)
(0 -0.0335 0)
(0.021602 0.025605 0)
(0.023973 0.0234 0)
(0.032876 0.006436 0)
(0.033344 0.003233 0)
(-0.00564 -0.033022 0)
(-0.014847 -0.03003 0)
(-0.011879 -0.031323 0)
(0.010352 0.03186 0)
(-0.008801 -0.032323 0)
(-0.017676 -0.028457 0)
(-0.02034 -0.026618 0)
(-0.025075 -0.022215 0)
(-0.022814 -0.024531 0)
(-0.033148 0.00484 0)
(-0.033461 0.001618 0)
(-0.032527 0.008017 0)
(-0.011879 0.031323 0)
(-0.014847 0.03003 0)
(-0.008801 0.032323 0)
(-0.032527 -0.008017 0)
(-0.031601 -0.011119 0)
(-0.033461 -0.001618 0)
(-0.031601 0.011119 0)
(-0.03038 0.014117 0)
(-0.025075 0.022215 0)
(-0.027102 0.019691 0)
(-0.022814 0.024531 0)
(-0.02034 0.026618 0)
(-0.017676 0.028457 0)
(-0.00564 0.033022 0)
(0.000809 0.03349 0)
(-0.002427 0.033412 0)
(-0.028876 -0.016983 0)
(-0.027102 -0.019691 0)
(-0.03038 -0.014117 0)
(-0.028876 0.016983 0)
(0.007229 0.032711 0)
(0.004038 0.033256 0)
(-0.033148 -0.00484 0)
)


// edges:

134
(
(0 1)
(1 2)
(2 3)
(3 4)
(4 5)
(5 6)
(6 7)
(7 8)
(8 9)
(9 10)
(10 11)
(11 12)
(12 13)
(13 14)
(14 15)
(15 16)
(16 17)
(17 18)
(18 19)
(19 20)
(20 21)
(21 22)
(22 23)
(23 24)
(24 25)
(25 26)
(26 27)
(27 28)
(28 29)
(29 30)
(30 31)
(31 32)
(32 33)
(33 34)
(34 35)
(35 36)
(36 37)
(37 38)
(38 39)
(39 40)
(40 41)
(41 42)
(42 43)
(43 44)
(44 45)
(45 46)
(46 47)
(47 48)
(48 49)
(49 50)
(50 51)
(52 53)
(53 54)
(54 55)
(55 56)
(56 57)
(57 58)
(58 59)
(59 60)
(60 61)
(61 62)
(62 63)
(63 64)
(64 65)
(65 66)
(66 67)
(67 0)
(51 52)
(68 69)
(70 68)
(71 72)
(73 74)
(75 70)
(76 75)
(77 76)
(78 77)
(79 78)
(80 79)
(81 80)
(82 83)
(84 71)
(85 73)
(86 87)
(88 81)
(89 88)
(90 91)
(92 90)
(93 94)
(95 84)
(74 96)
(97 86)
(91 89)
(83 92)
(94 82)
(96 95)
(98 97)
(99 93)
(100 101)
(72 102)
(69 98)
(103 99)
(104 100)
(87 85)
(105 104)
(106 107)
(108 109)
(110 108)
(111 112)
(113 111)
(107 105)
(114 115)
(109 116)
(117 110)
(118 117)
(119 120)
(121 119)
(122 121)
(123 122)
(124 113)
(125 126)
(101 103)
(127 128)
(115 129)
(130 118)
(120 130)
(112 123)
(126 124)
(131 132)
(128 106)
(133 114)
(102 131)
(116 133)
(129 127)
(132 125)
)

// * * * * * * * * * * * * * * * * * * * * * * * * * * * * * * * * * * * * * //


// ************************************************************************* //
