/*--------------------------------*- C++ -*----------------------------------*\
| =========                 |                                                 |
| \\      /  F ield         | OpenFOAM: The Open Source CFD Toolbox           |
|  \\    /   O peration     | Version:  5                                     |
|   \\  /    A nd           | Web:      www.OpenFOAM.org                      |
|    \\/     M anipulation  |                                                 |
\*---------------------------------------------------------------------------*/
FoamFile
{
    version     2.0;
    format      ascii;
    class       dictionary;
    object      fvSolution;
}
// * * * * * * * * * * * * * * * * * * * * * * * * * * * * * * * * * * * * * //

solvers
{
    h
    {
        solver           PCG;
        preconditioner   DIC;
        tolerance        1e-06;
        relTol           0.01;
    }
    
}

SIMPLE
{
    nNonOrthogonalCorrectors 3;
    
   residualControl
    {
        h
        {
            tolerance 1e-06;
            relTol 0.1;
        }
    }   
}

relaxationFactors
{
    equations
    {
        h              0.9;
    }
}

// ************************************************************************* //
