/*--------------------------------*- C++ -*----------------------------------*\
| =========                 |                                                 |
| \\      /  F ield         | OpenFOAM: The Open Source CFD Toolbox           |
|  \\    /   O peration     | Version:  5                                     |
|   \\  /    A nd           | Web:      www.OpenFOAM.org                      |
|    \\/     M anipulation  |                                                 |
\*---------------------------------------------------------------------------*/
FoamFile
{
    version     2.0;
    format      ascii;
    class       dictionary;
    object      blockMeshDict;
}
// * * * * * * * * * * * * * * * * * * * * * * * * * * * * * * * * * * * * * //

convertToMeters 1;

vertices
(
    (-0.075 0  -0.075)
    ( 0.075 0  -0.075)
    ( 0.075  0.075  -0.075)
    (-0.075  0.075  -0.075)
    (-0.075 0   0.075)
    ( 0.075 0   0.075)
    ( 0.075  0.075   0.075)
    (-0.075  0.075   0.075)
);

blocks
(
    hex (0 1 2 3 4 5 6 7) (30 10 10) simpleGrading (1 1 1)
);

edges
(
);

boundary
(
    skin
    {
        type wall;
        faces
        (
            (3 7 6 2)
        );
    }
    left
    {
        type patch;
        faces
        (
            (0 4 7 3)
        );
    }
    right
    {
        type patch;
        faces
        (
            (2 6 5 1)
        );
    }
    chest_wall
    {
        type wall;
        faces
        (
            (1 5 4 0)
        );
    }
    back
    {
        type wall;
        faces
        (
            (0 3 2 1)
        );
    }
    front
    {
        type wall;
        faces
        (
            (4 5 6 7)
        );
    }
);

mergePatchPairs
(
);

// ************************************************************************* //
