/*--------------------------------*- C++ -*----------------------------------*\
| =========                 |                                                 |
| \\      /  F ield         | OpenFOAM: The Open Source CFD Toolbox           |
|  \\    /   O peration     | Version:  5                                     |
|   \\  /    A nd           | Web:      www.OpenFOAM.org                      |
|    \\/     M anipulation  |                                                 |
\*---------------------------------------------------------------------------*/
FoamFile
{
    version     2.0;
    format      ascii;
    class       dictionary;
    object      topoSetDict;
}

// * * * * * * * * * * * * * * * * * * * * * * * * * * * * * * * * * * * * * //


actions
(
   
    // tumor
    {
        name    tumorCellSet;
        type    cellSet;
        action  new;
        source sphereToCell;
        sourceInfo
       {
        centre   (0.0196 0.055 0.01);
        radius   0.01;
       }
    }
   
    // set tumor cell zone from cell set
    {
        name    tumor;
        type    cellZoneSet;
        action  new;
        source  setToCellZone;
        sourceInfo
        {
            set tumorCellSet;
        }
    }
 
          
      // gland
    {
        name    glandCellSet;
        type    cellSet;
        action  new;
        source sphereToCell;
        sourceInfo
       {
        centre   (0 0 0);
        radius   0.072;
       }
    }

     
    // gland-tumor

     {
        name    glandCellSet;
        type    cellSet;
        action  delete;
        source sphereToCell;
        sourceInfo
       {
        centre   (0.0196 0.055 0.01);
        radius   0.01;
       }
    }

    // set gland cell zone from cell set
    {
        name    gland;
        type    cellZoneSet;
        action  new;
        source  setToCellZone;
        sourceInfo
        {
            set glandCellSet;
        }
    }

);


// ************************************************************************* //
