/*--------------------------------*- C++ -*----------------------------------*\
| =========                 |                                                 |
| \\      /  F ield         | OpenFOAM: The Open Source CFD Toolbox           |
|  \\    /   O peration     | Version:  5.x                                   |
|   \\  /    A nd           | Web:      www.OpenFOAM.org                      |
|    \\/     M anipulation  |                                                 |
\*---------------------------------------------------------------------------*/
FoamFile
{
    version     0.0;
    format      ascii;
    class       polyBoundaryMesh;
    location    "constant/muscle/polyMesh";
    object      boundary;
}
// * * * * * * * * * * * * * * * * * * * * * * * * * * * * * * * * * * * * * //


2
(
    thoraic_wall_muscle
    {
        type            patch;
        inGroups        1 ( wall );
        nFaces          6144;
        startFace       614964;
    }

    muscle_to_gland
    {
        type            mappedWall;
        inGroups        1 ( wall );
        nFaces          16432;
        startFace       621108;
        sampleMode      nearestPatchFace;
        sampleRegion    gland;
        samplePatch     gland_to_muscle;
    }

)


// ************************************************************************* //
