/*--------------------------------*- C++ -*----------------------------------*\
| =========                 |                                                 |
| \\      /  F ield         | OpenFOAM: The Open Source CFD Toolbox           |
|  \\    /   O peration     | Version:  5.x                                   |
|   \\  /    A nd           | Web:      www.OpenFOAM.org                      |
|    \\/     M anipulation  |                                                 |
\*---------------------------------------------------------------------------*/
FoamFile
{
    version     0.0;
    format      ascii;
    class       polyBoundaryMesh;
    location    "constant/gland/polyMesh";
    object      boundary;
}
// * * * * * * * * * * * * * * * * * * * * * * * * * * * * * * * * * * * * * //


3
(
    thoraic_wall_gland
    {
        type            patch;
        inGroups        1 ( wall );
        nFaces          5768;
        startFace       594312;
    }

    gland_to_muscle
    {
        type            mappedWall;
        inGroups        1 ( wall );
        nFaces          16432;
        startFace       600080;
        sampleMode      nearestPatchFace;
        sampleRegion    muscle;
        samplePatch     muscle_to_gland;
    }

    gland_to_tissue
    {
        type            mappedWall;
        inGroups        1 ( wall );
        nFaces          41740;
        startFace       616512;
        sampleMode      nearestPatchFace;
        sampleRegion    tissue;
        samplePatch     tissue_to_gland;
    }

)


// ************************************************************************* //
