/*--------------------------------*- C++ -*----------------------------------*\
| =========                 |                                                 |
| \\      /  F ield         | OpenFOAM: The Open Source CFD Toolbox           |
|  \\    /   O peration     | Version:  5.x                                   |
|   \\  /    A nd           | Web:      www.OpenFOAM.org                      |
|    \\/     M anipulation  |                                                 |
\*---------------------------------------------------------------------------*/
FoamFile
{
    version     0.0;
    format      ascii;
    class       polyBoundaryMesh;
    location    "constant/gland/polyMesh";
    object      boundary;
}
// * * * * * * * * * * * * * * * * * * * * * * * * * * * * * * * * * * * * * //


4
(
    thoraic_wall_gland
    {
        type            patch;
        inGroups        1 ( wall );
        nFaces          6816;
        startFace       867702;
    }

    gland_to_tumor
    {
        type            mappedWall;
        inGroups        1 ( wall );
        nFaces          2347;
        startFace       874518;
        sampleMode      nearestPatchFace;
        sampleRegion    tumor;
        samplePatch     tumor_to_gland;
    }

    gland_to_muscle
    {
        type            mappedWall;
        inGroups        1 ( wall );
        nFaces          9284;
        startFace       876865;
        sampleMode      nearestPatchFace;
        sampleRegion    muscle;
        samplePatch     muscle_to_gland;
    }

    gland_to_tissue
    {
        type            mappedWall;
        inGroups        1 ( wall );
        nFaces          25916;
        startFace       886149;
        sampleMode      nearestPatchFace;
        sampleRegion    tissue;
        samplePatch     tissue_to_gland;
    }

)


// ************************************************************************* //
