/*--------------------------------*- C++ -*----------------------------------*\
| =========                 |                                                 |
| \\      /  F ield         | OpenFOAM: The Open Source CFD Toolbox           |
|  \\    /   O peration     | Version:  5.x                                   |
|   \\  /    A nd           | Web:      www.OpenFOAM.org                      |
|    \\/     M anipulation  |                                                 |
\*---------------------------------------------------------------------------*/
FoamFile
{
    version     0.0;
    format      ascii;
    class       polyBoundaryMesh;
    location    "constant/gland/polyMesh";
    object      boundary;
}
// * * * * * * * * * * * * * * * * * * * * * * * * * * * * * * * * * * * * * //


4
(
    thoraic_wall_gland
    {
        type            patch;
        inGroups        1 ( wall );
        nFaces          5768;
        startFace       591672;
    }

    gland_to_tumor
    {
        type            mappedWall;
        inGroups        1 ( wall );
        nFaces          1228;
        startFace       597440;
        sampleMode      nearestPatchFace;
        sampleRegion    tumor;
        samplePatch     tumor_to_gland;
    }

    gland_to_muscle
    {
        type            mappedWall;
        inGroups        1 ( wall );
        nFaces          16432;
        startFace       598668;
        sampleMode      nearestPatchFace;
        sampleRegion    muscle;
        samplePatch     muscle_to_gland;
    }

    gland_to_tissue
    {
        type            mappedWall;
        inGroups        1 ( wall );
        nFaces          41740;
        startFace       615100;
        sampleMode      nearestPatchFace;
        sampleRegion    tissue;
        samplePatch     tissue_to_gland;
    }

)


// ************************************************************************* //
