/*--------------------------------*- C++ -*----------------------------------*\
| =========                 |                                                 |
| \\      /  F ield         | OpenFOAM: The Open Source CFD Toolbox           |
|  \\    /   O peration     | Version:  5                                     |
|   \\  /    A nd           | Web:      www.OpenFOAM.org                      |
|    \\/     M anipulation  |                                                 |
\*---------------------------------------------------------------------------*/
FoamFile
{
    version     2.0;
    format      ascii;
    class       dictionary;
    object      changeDictionaryDict;
}
// * * * * * * * * * * * * * * * * * * * * * * * * * * * * * * * * * * * * * //

boundary
{
        
}

T
{
    internalField   uniform 38;

    boundaryField
    {
       
        tumor_to_gland
        {
            type            compressible::turbulentTemperatureCoupledBaffleMixed;
            Tnbr            T;
			kappaMethod     directionalSolidThermo;
		alphaAni Anialpha;
            //kappaMethod     solidThermo;
            value           uniform 38;
        }
     
}

// ************************************************************************* //
