/*--------------------------------*- C++ -*----------------------------------*\
| =========                 |                                                 |
| \\      /  F ield         | OpenFOAM: The Open Source CFD Toolbox           |
|  \\    /   O peration     | Version:  5                                     |
|   \\  /    A nd           | Web:      www.OpenFOAM.org                      |
|    \\/     M anipulation  |                                                 |
\*---------------------------------------------------------------------------*/
FoamFile
{
    version     2.0;
    format      ascii;
    class       dictionary;
    location    "constant";
    object      fvOptions;
}
// * * * * * * * * * * * * * * * * * * * * * * * * * * * * * * * * * * * * * //

 
metabolic_heat_generation_tumor
{
    type            scalarSemiImplicitSource;
    active          true;
 
    scalarSemiImplicitSourceCoeffs
    {
        selectionMode   cellZone; // all, cellSet, cellZone, points
        cellZone         tumor;
        volumeMode      specific; // absolute;
        injectionRateSuSp
        {
            h   (65443.1285506 0);
        }
    }
}

blood_perfusion_tumor
{
    type          scalarCodedSource;
    name    sourceTime;
    active          true;
    

    scalarCodedSourceCoeffs
    {
        
        selectionMode   cellZone;
        cellZone        tumor;
	fields      (h);

        codeInclude
        #{

        #};

        codeCorrect
        #{
            Pout<< "**codeCorrect**" << endl;
        #};

        codeAddSup
        #{
	    //scalar Tvol = 0;
            //const Time& time = mesh().time();
	    //volScalarField& T=thermo.Tmodifiable();
            const volScalarField& T = mesh_.lookupObject<volScalarField>("T");
	    //const volScalarField& Tm = mesh().thermo.T(); 
	    //volScalarField magnitudeTemp = mag(Tm);
            //Tvol = Tm.weightedAverage(mesh().V()).value();                //averageValue of the volScalarField
	    //Info << "Tvol"<< endl;
            const vectorField& C = mesh_.C();                    //List of cellcentres
	    const scalarField& V = mesh_.V();
	    const volScalarField z = T.mesh().C() & vector(1,1,1);
	    //const scalar meanT = sum(mag(Tm)*V)/sum(V);
            scalarField& hSource = eqn.source();                //defining source
            forAll(C, i)
            {
                hSource[i] -= (37 - z[i])*48000*V[i];
		
            }
	    
            Pout << "***codeAddSup***" << endl;
        #};

        codeSetValue
        #{
            Pout<< "**codeSetValue**" << endl;
        #};

        // Dummy entry. Make dependent on above to trigger recompilation
        code
        #{
            $codeInclude
            $codeCorrect
            $codeAddSup
            $codeSetValue
        #};
    }

    sourceTimeCoeffs
    {
         $scalarCodedSourceCoeffs;
    }
}


// ************************************************************************* //

 


