/*--------------------------------*- C++ -*----------------------------------*\
| =========                 |                                                 |
| \\      /  F ield         | OpenFOAM: The Open Source CFD Toolbox           |
|  \\    /   O peration     | Version:  5.x                                   |
|   \\  /    A nd           | Web:      www.OpenFOAM.org                      |
|    \\/     M anipulation  |                                                 |
\*---------------------------------------------------------------------------*/
FoamFile
{
    version     2.0;
    format      ascii;
    class       polyBoundaryMesh;
    location    "constant/polyMesh";
    object      boundary;
}
// * * * * * * * * * * * * * * * * * * * * * * * * * * * * * * * * * * * * * //

10
(
    thoraic_wall_gland
    {
        type            wall;
        inGroups        1(wall);
        nFaces          5768;
        startFace       1008665;
    }
    gland_ext
    {
        type            wall;
        inGroups        1(wall);
        nFaces          0;
        startFace       1014433;
    }
    tumor_ext
    {
        type            wall;
        inGroups        1(wall);
        nFaces          0;
        startFace       1014433;
    }
    muscle_ext
    {
        type            wall;
        inGroups        1(wall);
        nFaces          0;
        startFace       1014433;
    }
    thoraic_wall_muscle
    {
        type            wall;
        inGroups        1(wall);
        nFaces          2220;
        startFace       1014433;
    }
    muscle_int
    {
        type            wall;
        inGroups        1(wall);
        nFaces          0;
        startFace       1016653;
    }
    adiabatic_wall
    {
        type            wall;
        inGroups        1(wall);
        nFaces          1256;
        startFace       1016653;
    }
    skin
    {
        type            wall;
        inGroups        1(wall);
        nFaces          17308;
        startFace       1017909;
    }
    gland_int
    {
        type            wall;
        inGroups        1(wall);
        nFaces          0;
        startFace       1035217;
    }
    tumor_int
    {
        type            wall;
        inGroups        1(wall);
        nFaces          0;
        startFace       1035217;
    }
)

// ************************************************************************* //
