/*--------------------------------*- C++ -*----------------------------------*\
| =========                 |                                                 |
| \\      /  F ield         | OpenFOAM: The Open Source CFD Toolbox           |
|  \\    /   O peration     | Version:  5.x                                   |
|   \\  /    A nd           | Web:      www.OpenFOAM.org                      |
|    \\/     M anipulation  |                                                 |
\*---------------------------------------------------------------------------*/
FoamFile
{
    version     2.0;
    format      ascii;
    class       polyBoundaryMesh;
    location    "constant/polyMesh";
    object      boundary;
}
// * * * * * * * * * * * * * * * * * * * * * * * * * * * * * * * * * * * * * //

10
(
    thoraic_wall_gland
    {
        type            wall;
        inGroups        1(wall);
        nFaces          6816;
        startFace       1125482;
    }
    gland_ext
    {
        type            wall;
        inGroups        1(wall);
        nFaces          0;
        startFace       1132298;
    }
    tumor_ext
    {
        type            wall;
        inGroups        1(wall);
        nFaces          0;
        startFace       1132298;
    }
    muscle_ext
    {
        type            wall;
        inGroups        1(wall);
        nFaces          0;
        startFace       1132298;
    }
    thoraic_wall_muscle
    {
        type            wall;
        inGroups        1(wall);
        nFaces          2220;
        startFace       1132298;
    }
    muscle_int
    {
        type            wall;
        inGroups        1(wall);
        nFaces          0;
        startFace       1134518;
    }
    adiabatic_wall
    {
        type            wall;
        inGroups        1(wall);
        nFaces          1312;
        startFace       1134518;
    }
    skin
    {
        type            wall;
        inGroups        1(wall);
        nFaces          4788;
        startFace       1135830;
    }
    gland_int
    {
        type            wall;
        inGroups        1(wall);
        nFaces          0;
        startFace       1140618;
    }
    tumor_int
    {
        type            wall;
        inGroups        1(wall);
        nFaces          0;
        startFace       1140618;
    }
)

// ************************************************************************* //
