/*--------------------------------*- C++ -*----------------------------------*\
| =========                 |                                                 |
| \\      /  F ield         | OpenFOAM: The Open Source CFD Toolbox           |
|  \\    /   O peration     | Version:  5.x                                   |
|   \\  /    A nd           | Web:      www.OpenFOAM.org                      |
|    \\/     M anipulation  |                                                 |
\*---------------------------------------------------------------------------*/
FoamFile
{
    version     2.0;
    format      ascii;
    class       polyTopoChanger;
    location    "constant/polyMesh";
    object      meshModifiers;
}
// * * * * * * * * * * * * * * * * * * * * * * * * * * * * * * * * * * * * * //

1
(
couple
{
    type slidingInterface;
    masterFaceZoneName tumor_exttumor_intMasterZone;
    slaveFaceZoneName tumor_exttumor_intSlaveZone;
    cutPointZoneName tumor_exttumor_intCutPointZone;
    cutFaceZoneName tumor_exttumor_intCutFaceZone;
    masterPatchName tumor_ext;
    slavePatchName tumor_int;
    typeOfMatch partial;
    coupleDecouple true;
    projection visible;
    attached true;
    active true;
masterFaceCells List<label> 
324
(
13261
13262
13298
13332
13362
13363
13364
14145
14146
14184
14218
14250
14278
14304
15057
15094
15128
15157
15184
15209
15232
15233
15961
15962
15998
16030
16059
16084
16109
16130
16896
16929
16958
16985
17009
17010
17836
17837
17866
17867
36135
36136
36158
36160
36165
36166
36167
36173
36199
36201
36206
36207
36208
36214
36853
36859
36860
36866
36885
36886
36887
36888
36889
36892
36913
36915
36916
36917
36921
36946
36949
36952
36953
36954
36988
36990
36992
36993
36994
36995
36996
37606
37612
37613
37619
37644
37645
37646
37647
37648
37657
37677
37678
37679
37683
37703
37705
37706
37737
37739
37740
37742
37777
37778
37780
37814
37820
38385
38389
38392
38395
38396
38402
38419
38423
38424
38425
38448
38452
38453
38481
38483
38485
38514
38516
38518
38551
38553
38595
38596
39176
39183
39210
39217
39219
39220
39221
39253
39254
39280
39285
39316
39322
39357
39358
40010
40043
40044
40045
40074
40079
40080
40116
40121
36164
36171
36891
36918
36205
36212
37676
37707
37741
37779
37032
37815
37817
37818
38391
38398
38428
38454
38479
38512
39182
39218
39225
39255
39278
39314
39321
39361
39393
39395
40016
40047
40073
40114
40161
47757
47651
36893
36919
36923
36925
36951
36958
36960
36991
47663
37033
47669
36998
47683
37650
37651
37681
47657
37682
37708
37712
37714
37746
37748
37776
47691
37782
37783
47697
37812
47677
37813
37816
37845
37846
37821
38426
38432
39251
38457
38455
38461
38487
38489
38491
38552
38520
38554
38522
38524
38588
38592
38555
38556
38557
38627
38631
39394
38634
38637
38638
38597
38602
38598
38644
39216
40003
40009
39223
39257
40046
39256
39259
39286
39288
39290
39287
40084
39323
39324
39326
47729
39360
40160
39362
39364
39363
39397
39399
39400
39425
39398
39401
39402
39403
40041
40042
47745
40786
40049
40787
40050
47751
40078
40808
40810
40815
40816
40817
40081
40082
40823
40122
40853
40855
40860
40165
40861
40166
40862
40123
40126
40124
40170
40868
40162
40164
47778
40167
40168
40197
40169
40171
40172
)
;
slaveFaceCells  List<label> 
337
(
336300
336336
336390
336391
336405
336421
336522
336617
336635
336037
336038
336039
336040
336041
336042
336043
336046
336059
336062
336063
336064
336069
336074
336075
336080
336081
336086
336093
336094
336095
336100
336105
336106
336111
336112
336117
336124
336125
336126
336129
336142
336145
336146
336147
336148
336149
336150
336151
336157
336173
336178
336179
336200
336202
336205
336215
336216
336218
336219
336227
336243
336244
336256
336268
336273
336274
336287
336289
336291
336307
336313
336319
336321
336339
336340
336347
336351
336366
336367
336368
336376
336377
336378
336386
336392
336401
336402
336404
336409
336423
336426
336427
336428
336440
336441
336451
336453
336454
336456
336467
336470
336486
336487
336488
336495
336499
336501
336502
336513
336514
336517
336523
336524
336527
336529
336530
336531
336532
336534
336535
336544
336545
336546
336549
336550
336552
336553
336554
336559
336573
336578
336579
336580
336599
336601
336608
336609
336610
336616
336623
336624
336627
336628
336629
336631
336636
336637
336639
336640
336642
336643
336645
336646
336647
336650
336651
336652
336653
336655
336656
336657
336658
336180
336182
336193
336214
336221
336225
336275
336285
336299
336316
336306
336320
336323
336345
336395
336406
336417
336411
336424
336425
336510
336515
336511
336525
336576
336475
336581
336597
336602
336500
336625
336521
336634
336528
336586
336649
336600
336654
336607
336641
336165
336166
336167
336172
336181
336186
336187
336188
336194
336195
336153
336154
336222
336152
336161
336155
336156
336158
336159
336248
336160
336162
336163
336175
336252
336254
336260
336184
336201
336266
336203
336204
336279
336208
336209
336211
336212
336213
336292
336293
336217
336220
336229
336223
336236
336226
336230
336247
336228
336232
336246
336250
336249
336259
336262
336264
336261
336276
336277
336294
336296
336314
336315
336318
336322
336419
336327
336331
336341
336325
336324
336335
336349
336342
336343
336344
336355
336353
336357
336370
336372
336374
336381
336380
336383
336393
336399
336407
336431
336429
336430
336447
336434
336437
336438
336439
336442
336443
336458
336460
336461
336471
336473
336477
336490
336491
336492
336504
336508
336516
336533
336543
336536
336542
336538
336558
336551
336560
336582
336588
336603
336632
336644
336648
336224
336317
336326
336330
336338
336408
336435
336424
336424
336425
336425
)
;
masterStickOutFaces List<label> 
1336
(
206848
206849
206851
206852
206853
206855
206856
206857
206858
206859
206862
108559
108560
206864
206865
108562
206868
108565
92181
206869
108566
92182
206870
217110
108567
206871
217111
206872
92184
92185
217113
108570
206874
217114
108571
206875
92187
108572
217116
92188
108573
92189
108574
92190
217121
217122
217125
217126
217129
217130
217131
217132
217133
217134
217135
217136
217137
217138
217139
217140
217141
217142
217143
217144
217145
217146
217150
217151
217152
217153
217156
217162
217163
217164
217165
221264
221265
221266
221269
221270
221271
221274
221275
102496
221281
102497
477281
221282
102498
221284
221285
221286
477286
102502
221287
102503
206951
221288
102504
102505
206953
221289
102506
206954
221290
102507
221291
102508
221292
102509
221293
206957
102510
206958
221295
206959
221296
206961
221298
477299
206963
206964
221301
206965
206967
206968
206969
221306
206970
206972
206975
206981
206982
206983
206984
206986
206987
206988
206989
86170
86171
86172
86173
92318
86174
92319
86176
92321
86177
92322
86179
92324
92325
92326
92328
217257
92329
217258
92330
217259
217260
92332
92333
217262
217263
217264
217265
217266
217267
217268
217269
217270
217271
217272
217274
217275
217276
475373
221424
475376
221425
221426
207090
221427
207091
221428
207092
221429
475381
207093
221430
207094
221431
221432
207096
221433
475385
207097
221434
207099
221436
207100
221437
207101
207102
221439
207103
221440
207104
221441
207105
221442
207106
221443
207107
221444
221445
207109
207110
207111
221447
221448
207113
207114
221450
221451
221452
221453
221454
221455
221456
221457
217361
217362
221458
217363
221459
221461
221462
217367
217368
217373
217374
217375
102692
217381
102693
102694
217382
102695
217384
102696
217385
217386
102698
102699
217387
102700
217388
217389
102701
217390
217391
217392
217397
217402
217403
254271
254272
217409
254279
254281
254282
213324
254285
213325
254286
213327
254287
213328
254294
213337
213338
213339
86363
254299
86364
254300
213341
86365
254301
213342
86366
254302
86367
86368
254305
86370
213346
213347
86371
254307
213348
254308
213349
254314
213357
254317
213358
254318
213359
213360
254320
254321
504179
213364
254324
213365
207221
213366
213367
254329
221561
221562
221563
221565
254335
207231
221567
207232
254336
213376
254337
207233
221569
213377
207234
213378
254339
207235
221571
213379
207236
254340
207237
221573
207238
207240
254344
207241
254353
254354
254355
254356
254357
217497
217498
254362
217502
217503
217507
254371
254372
217508
254373
254374
254375
217514
217515
254379
254380
217517
254381
217518
217519
217520
217521
217522
254386
217523
217524
254389
217525
448951
254392
217529
254398
217534
213440
254401
213441
217539
213443
213444
448964
213446
254407
254408
213451
213452
213453
213455
102864
213456
102865
213457
102866
102867
213459
102868
213460
213461
102870
213462
102871
102872
102873
213466
213467
213468
213469
213472
213478
213479
213480
213481
80381
80382
80383
80384
80385
86530
86531
80387
86532
80388
86533
80389
86534
80390
86535
80391
86536
80392
80393
80394
80395
86540
80396
80398
80399
96791
96792
96793
96794
96795
96796
96797
96798
96799
96801
96802
254501
213541
254502
213542
213543
254506
254508
213549
213550
254511
213551
254512
217652
213556
213557
217654
213559
217655
254520
217656
217657
217658
254522
217660
213564
217661
213565
217662
213566
254526
217663
213567
254527
213568
217664
217665
217667
217668
217669
217670
213574
217671
213575
217672
254537
217673
217674
254538
254539
254540
213581
254543
254548
213588
213589
254555
254558
254559
254563
254573
254574
254575
103025
254578
103026
254579
103027
103028
254583
103031
103032
103033
103034
254591
254593
254594
254599
86682
86683
86685
86688
86689
86690
86691
86692
86693
86694
502438
254630
86695
213671
254631
254632
213672
86696
502442
213676
254637
213677
213681
213682
502453
213687
213688
254648
254649
254650
213692
217791
254655
217792
217793
213697
217794
217795
217796
217797
217798
213702
217799
213703
217800
217802
217803
217804
217805
217806
217807
217808
217809
217810
217811
217812
217813
217814
217815
80600
217816
80601
217817
80602
217818
217819
217820
217821
217822
80606
217823
80607
80608
80609
80610
80611
80612
80613
80614
97010
97011
97012
97013
97014
97015
97016
97019
103170
103171
103172
103173
103174
103175
103176
103177
103178
103179
103180
103181
103182
103183
103184
103185
103186
213795
213796
213800
213801
213805
213806
86830
86831
86833
86835
213811
86836
213812
86837
213816
86841
217917
213821
213826
213827
217924
217926
217928
213911
213912
80802
80803
80804
209829
80805
213925
209830
213926
80808
209833
80809
209834
80810
209835
80811
80812
80813
80814
213934
80815
213935
213936
80816
213937
97201
213938
213939
97203
97204
213940
529333
97205
209845
213942
209846
213943
529335
209847
213944
213945
209849
209850
213947
213948
209855
209856
209858
529347
209859
209860
203716
203717
203719
203720
203721
203723
203724
203725
209869
209870
203726
203727
209871
209872
203728
209877
209878
209880
209881
447449
447450
447458
209891
209892
447461
209893
209894
203797
203798
203799
203801
203802
203803
203804
203805
203806
224287
203808
203809
224290
224292
224294
224295
209963
209964
203820
203821
203822
214063
209967
203823
214064
209968
203824
214065
203825
203826
209971
203827
209972
209973
214070
209974
214071
214072
214074
209979
209980
214077
209981
214078
203839
209983
203840
209984
203841
209985
203842
214083
203843
209987
203844
214084
209988
209989
214086
203846
209990
214087
209991
203847
214088
209992
203848
203849
214089
214090
214091
214092
214093
209997
214094
209998
209999
214096
210000
214097
210001
214099
214100
210005
214105
214106
210011
210012
214108
80988
210013
80989
210014
80990
214111
80991
80992
97377
80993
97378
80994
80995
97380
80996
97381
80997
80998
80999
81000
81001
81002
81004
81005
224385
224387
224388
224392
224393
91275
91276
91277
91278
91279
91280
91282
91283
224409
224411
224414
224415
203937
203938
210083
210084
203940
203941
210085
210086
203942
210087
203943
210088
203945
210089
210090
203946
224427
210091
203947
210092
224429
210093
210094
224430
210095
210096
224433
210097
210098
210099
210100
203958
203959
203960
203961
203962
203963
203964
203965
214207
214208
203976
214217
203977
203978
203979
214221
203981
214222
203982
203983
203985
214231
214237
214240
214241
214249
214250
214258
210163
210164
214262
210166
97527
97528
97529
97530
97531
210171
97532
210172
97533
210173
97536
210179
210180
210181
210186
210187
210188
81164
210189
81165
210190
81167
81170
81171
210196
81173
81174
81176
81177
81178
210203
81180
210204
210210
210211
224550
224552
224556
224557
224571
224573
204095
224576
224577
204097
204099
204100
224589
224591
224595
91496
91497
91498
91499
91500
91502
91503
91504
210293
210294
210300
210301
210303
210307
210308
97672
97673
210313
97674
210314
210315
97676
210316
210317
97678
97679
97680
97681
210322
210329
210334
210335
108013
108014
108015
108018
108019
108020
108023
476669
97798
97799
97801
97804
210444
97805
210445
210446
97807
97808
210448
97809
210449
97810
210450
97811
210451
97812
210452
210453
97814
210455
210456
210457
210458
210459
210460
210461
210462
210464
210465
210466
210467
210468
91700
91701
91703
91704
210578
210579
210580
210581
210582
210583
210584
210585
210586
210587
210588
210589
210590
210591
210592
210593
210594
210595
210596
210597
210598
210599
210600
210601
210603
210604
210605
210606
220847
210607
220850
220851
108212
220852
108213
220853
108214
220854
108216
108218
108219
108220
108221
108223
220863
108224
220864
108225
220867
108227
220868
220870
220873
220874
220875
220876
220884
220885
220887
220888
220890
220893
220894
220895
220896
220897
91873
85730
91874
85731
85732
91876
85733
91877
85734
85735
85736
220905
85737
220906
85738
85739
220908
85740
85741
85742
85743
85744
85746
85747
210695
210705
210707
210709
210710
206641
206642
206645
206646
206647
206649
206650
206653
206654
220991
206655
220992
206657
220993
206658
220994
220995
206659
220996
206660
220997
206661
220998
220999
221000
503624
221001
221002
206666
221003
206667
221004
221005
206669
221006
206670
221007
206671
221008
221009
206673
206674
221011
221012
206676
221013
206677
221014
206678
221015
206680
206681
206686
206687
206689
206690
206693
108390
206694
108391
108392
206696
108393
206697
108396
206700
108397
206701
108398
206702
108399
206703
108401
108402
108403
108404
102271
102272
102273
92036
102277
92037
102278
92038
102279
92039
92040
102280
92041
102283
92044
102284
92045
102285
102286
216988
216989
216991
216992
217001
217002
206763
206764
217005
206765
217006
206766
206767
206768
206769
206770
217011
206771
217012
217013
206773
206774
217014
206775
206776
206777
221114
206778
221115
221116
221118
217022
221119
217023
217025
221122
217026
221123
221124
221126
221127
217031
85960
217032
85961
221130
85962
217034
221131
85963
85964
221133
221134
85966
221135
85967
221136
85968
221137
221138
221139
221140
217044
221141
221142
221144
221145
221146
221148
221151
221152
221158
206836
206837
206838
206840
206841
206844
206845
206847
)
;
slaveStickOutFaces List<label> 
1055
(
1005860
1005861
1005862
1005863
1005864
1005865
1005866
1005867
1005868
1005869
1005871
1005872
1005873
1005874
1005876
1005877
1005878
1005879
1005880
1005881
1005882
1005883
1005884
1005885
1005888
1005889
1005890
1005892
1005893
1005894
1005896
1005897
1005898
1005903
1005904
1005905
1005906
1005907
1005908
1005909
1005910
1005912
1005914
1005915
1005916
1005918
1005919
1005920
1005922
1005923
1005924
1005933
1005937
1005941
1005947
1005948
1005949
1005950
1005951
1005953
1005955
1005957
1005959
1005960
1005983
1005984
1005985
1005986
1005988
1005989
1005990
1005991
1005992
1005994
1005998
1006001
1006013
1006014
1006017
1006020
1006021
1006022
1006023
1006025
1006026
1006027
1006028
1006029
1006030
1006031
1006033
1006034
1006035
1006036
1006038
1006039
1006040
1006041
1006042
1006043
1006044
1006045
1006046
1006049
1006050
1006051
1006052
1006054
1006055
1006056
1006058
1006059
1006060
1006072
1006076
1006080
1006086
1006087
1006088
1006089
1006090
1006091
1006092
1006093
1006115
1006116
1006117
1006118
1006119
1006121
1006122
1006144
1006145
1006146
1006147
1006149
1006150
1006151
1006153
1006157
1006160
1006180
1006181
1006182
1006183
1006184
1006186
1006187
1006204
1006208
1006209
1006211
1006212
1006214
1006215
1006217
1006218
1006219
1006220
1006221
1006223
1006225
1006227
1006228
1006230
1006231
1006232
1006233
1006234
1006235
1006236
1006237
1006238
1006239
1006240
1006241
1006242
1006243
1006246
1006249
1006253
1006258
1006260
1006262
1006263
1006264
1006266
1006268
1006271
1006272
1006273
1006274
1006275
1006276
1006277
1006278
1006281
1006284
1006288
1006313
1006314
1006315
1006316
1006317
1006319
1006320
1006351
1006352
1006354
1006355
1006356
1006357
1006358
1006365
1006367
1006370
1006392
1006393
1006394
1006395
1006396
1006397
1006399
1006400
1006401
1006407
1006409
1006410
1006412
1006413
1006417
1006418
1006419
1006420
1006421
1006422
1006423
1006424
1006425
1006426
1006428
1006429
1006430
1006432
1006434
1006435
1006438
1006439
1006440
1006441
1006442
1006443
1006444
1006445
1006446
1006447
1006448
1006449
1006450
1006451
1006452
1006453
1006454
1006455
1006456
1006457
1006458
1006459
1006460
1006461
1006462
1006463
1006464
1006465
1006466
1006467
1006478
1006479
1006480
1006481
1006482
1006483
1006484
1006485
1006487
1006488
1006500
1006502
1006503
1006504
1006505
1006506
1006508
1006509
1006521
1006523
1006524
1006525
1006526
1006527
1006528
1006530
1006531
1006532
1006533
1006535
1006536
1006537
1006538
1006539
1006540
1006541
1006542
1006543
1006544
1006545
1006546
1006547
1006548
1006549
1006550
1006551
1006554
1006555
1006556
1006557
1006558
1006559
1006560
1006561
1006562
1006563
1006564
1006565
1006566
1006567
1006568
1006569
1006570
1006571
1006572
1006573
1006574
1006575
1006576
1006577
1006578
1006579
1006580
1006581
1006582
1006583
1006584
1006585
1006586
1006587
1006588
1006589
1006590
1006591
1006592
1006593
1006594
1006595
1006596
1006598
1006599
1006600
1006601
1006603
1006608
1006609
1006610
1006611
1006612
1006613
1006614
1006615
1006616
1006618
1006619
1006620
1006621
1006622
1006623
1006624
1006625
1006626
1006627
1006628
1006629
1006631
1006632
1006633
1006634
1006635
1006637
1006638
1006640
1006641
1006647
1006650
1006651
1006652
1006653
1006654
1006657
1006658
1006659
1006660
1006661
1006662
1006663
1006664
1006665
1006666
1006667
1006668
1006669
1006670
1006671
1006672
1006673
1006674
1006675
1006676
1006677
1006678
1006679
1006680
1006681
1006682
1006683
1006684
1006685
1006686
1006687
1006688
1006689
1006690
1006691
1006692
1006693
1006694
1006695
1006696
1006697
1006698
1006699
1006700
1006701
1006702
1006703
1006704
1006705
1006706
1006707
1006708
1006709
1006710
1006711
1006712
1006713
1006714
1006715
1006716
1006717
1006718
1006719
1006721
1006722
1006725
1006726
1006727
1006730
1006731
1006734
1006737
1006738
1006739
1006740
1006741
1006742
1006743
1006744
1006745
1006746
1006747
1006748
1006749
1006750
1006751
1006752
1006753
1006754
1006755
1006756
1006757
1006759
1006760
1006761
1006763
1006764
1006768
1006769
1006770
1006771
1006772
1006773
1006774
1006775
1006776
1006777
1006778
1006779
1006781
1006782
1006783
1006784
1006785
1006786
1006787
1006789
1006790
1006793
1006794
1006799
1006800
1006801
1006802
1006803
1006804
1006805
1006806
1006807
1006808
1006809
1006810
1006812
1006813
1006815
1006817
1006820
1006822
1006823
1006824
1006825
1006826
1006829
1006830
1006831
1006832
1006834
1006835
1006836
1006837
1006838
1006839
1006840
1006841
1006842
1006845
1006846
1006847
1006848
1006849
1006850
1006852
1006853
1006854
1006855
1006860
1006861
1006862
1006863
1006864
1006865
1006866
1006867
1006868
1006871
1006872
1006873
1006874
1006875
1006876
1006877
1006878
1006879
1006880
1006881
1006882
1006883
1006884
1006885
1006886
1006888
1006889
1006890
1006891
1006892
1006893
1006894
1006895
1006896
1006897
1006898
1006899
1006900
1006901
1006902
1006903
1006904
1006905
1006906
1006907
1006909
1006910
1006911
1006913
1006914
1006916
1006919
1006920
1006921
1006922
1006923
1006924
1006925
1006926
1006927
1006928
1006929
1006930
1006931
1006932
1006933
1006934
1006935
1006936
1006937
1006938
1006939
1006940
1006941
1006943
1006944
1006945
1006947
1006948
1006952
1006953
1006954
1006955
1006956
1006957
1006960
1006961
1006963
1006965
1006966
1006969
1006970
1006974
1006979
1006980
1006987
1006988
1006989
1006990
1006993
1006994
1006996
1006998
1007002
1007003
1007006
1007007
1007008
1007010
1007011
1007013
1007014
1007015
1007016
1007017
1007018
1007019
1007020
1007021
1007022
1007023
1007024
1007027
1007028
1007032
1007033
1007034
1007039
1007040
1007041
1007042
1007043
1007046
1007047
1007048
1007049
1007051
1007054
1007055
1007056
1007057
1007058
1007059
1007060
1007061
1007062
1007063
1007064
1007065
1007066
1007067
1007068
1007070
1007071
1007072
1007075
1007076
1007077
1007078
1007079
1007085
1007086
1007087
1007089
1007091
1007092
1007093
1007094
1007095
1007098
1007099
1007100
1007101
1007102
1007103
1007104
1007105
1007106
1007107
1007108
1007109
1007110
1007111
1007112
1007113
1007114
1007115
1007116
1007117
1007118
1007119
1007120
1007121
1007122
1007123
1007124
1007125
1007126
1007127
1007128
1007129
1007130
1007131
1007132
1007133
1007134
1007136
1007138
1007140
1007141
1007143
1007145
1007147
1007148
1007149
1007150
1007151
1007152
1007153
1007154
1007155
1007156
1007157
1007158
1007159
1007160
1007161
1007163
1007164
1007165
1007166
1007167
1007168
1007169
1007170
1007173
1007174
1007176
1007178
1007179
1007183
1007184
1007185
1007186
1007187
1007190
1007191
1007192
1007193
1007194
1007195
1007196
1007197
1007198
1007199
1007200
1007213
1007214
1007215
1007219
1007220
1007221
1007222
1007223
1007224
1007225
1007226
1007227
1007228
1007229
1007230
1007231
1007232
1007233
1007234
1007237
1007238
1007241
1007242
1007243
1007244
1007245
1007246
1007247
1007248
1007249
1007250
1007253
1007254
1007255
1007256
1007257
1007258
1007259
1007260
1007261
1007262
1007263
1007264
1007265
1007266
1007267
1007268
1007269
1007270
1007271
1007274
1007275
1007276
1007277
1007278
1007279
1007280
1007281
1007282
1007283
1007284
1007285
1007286
1007287
1007288
1007289
1007290
1007291
1007292
1007293
1007294
1007295
1007296
1007297
1007298
1007299
1007300
1007302
1007304
1007308
1007309
1007310
1007311
1007312
1007313
1007314
1007315
1007316
1007317
1007318
1007319
1007320
1007321
1007322
1007323
1007324
1007325
1007326
1007327
1007328
1007330
1007332
1007336
1007337
1007338
1007339
1007340
1007341
1007342
1007343
1007344
1007352
1007353
1007355
1007356
1007358
1007364
1007370
1007371
1007372
1007373
1007374
1007376
1007377
1007378
1007379
1007380
1007381
1007382
1007383
1007384
1007385
1007386
1007387
1007388
1007392
1007396
1007397
1007398
1007399
1007401
1007402
1007403
1007404
1007405
1007417
1007418
1007419
1007424
1007425
1007426
1007427
1007428
1007429
1007430
1007431
1007432
1007433
1007434
1007437
1007438
1007439
1007441
1007442
1007443
1007444
1007445
1007446
1007447
1007448
1007457
1007458
1007459
1007460
1007461
1007462
1007464
1007465
1007466
1007467
1007472
1007473
1007474
1007475
1007476
1007477
1007478
1007479
1007480
1007481
1007482
1007483
1007484
1007485
1007486
1007487
1007488
1007489
1007490
1007491
1007492
1007493
1007494
1007495
1007496
1007497
1007498
1007499
1007500
1007501
1007502
1007503
1007504
1007505
1007506
1007507
1007508
1007509
1007510
1007511
1007512
1007514
1007515
1007516
1007517
1007519
1007520
1007521
)
;
    retiredPointMap 
408
(
367616 366764
367617 366791
367618 367141
367619 367143
367620 367146
367621 366653
367622 366865
367623 367148
367624 366863
367625 366553
367626 367159
367627 367156
367628 366882
367629 366873
367630 367165
367631 366808
367632 366885
367633 367195
367634 366845
367635 366866
367636 366669
367637 367204
367638 366672
367639 366876
367640 366557
367641 367152
367642 366673
367643 367221
367644 366884
367645 366676
367646 367162
367647 367230
367648 366678
367649 366595
367650 366964
367651 366967
367652 367267
367653 366920
367654 366688
367655 366936
367656 366611
367657 367011
367658 367277
367659 367269
367660 367009
367661 366691
367662 367012
367663 367284
367664 366949
367665 366943
367666 367217
367667 366950
367668 367285
367669 366952
367670 366944
367671 367014
367672 367290
367673 367015
367674 366694
367675 367293
367676 367294
367677 366966
367678 367295
54335 366734
367679 367236
54336 366735
367680 366957
367681 366968
367682 367298
367683 367016
367684 366616
367685 367021
54341 367052
367686 366698
54342 367091
367687 367328
367688 366708
367689 367022
367690 367054
367691 366637
367692 367085
367693 366508
367694 366733
367695 367088
367696 366789
367697 367087
54354 366741
367698 366655
367699 366798
54356 366743
367700 366525
367701 367197
367702 366856
367703 366554
367704 367206
367705 366928
367706 367306
367707 367045
367708 366626
367709 367046
367710 366510
367711 366742
367712 366628
367713 366642
367714 367106
367715 367135
367716 367094
367717 367095
367718 366858
367719 366658
54378 366755
54405 367078
56459 367037
55457 366689
55461 367281
28869 366996
28870 366610
28877 366613
41203 366999
41206 367327
41238 367330
28993 366971
29008 366625
39265 367107
39323 366785
54823 366796
54824 366797
55851 367214
55852 367222
55926 366995
40591 367276
54935 366654
55974 367283
367345 366582
367346 366855
367347 366915
367348 367185
367349 366624
367350 367039
367351 366719
367352 367043
367353 366722
367354 367044
367355 366725
367356 366506
367357 366726
367358 367070
367359 366727
367360 366507
367361 367082
367362 367133
367363 366652
367364 367150
367365 367090
367366 366793
367367 366818
367368 367178
367369 366821
367370 367121
367371 366664
367372 366831
367373 366540
367374 366832
38670 367053
367375 366840
367376 366545
367377 366868
367378 366871
367379 367245
367380 366898
367381 367186
367382 366684
367383 366572
367384 366909
367385 367247
367386 367255
367387 366938
367388 366706
367389 367018
367390 367335
367391 366711
367392 367336
367393 366712
367394 366620
367395 367033
367396 367337
367397 367036
367398 367338
367399 366513
367400 366717
367401 367069
367402 367074
367403 366634
367404 367064
367405 366766
367406 367081
367407 367076
367408 366730
367409 366522
367410 367079
367411 366731
367412 366528
367413 367103
367414 367104
28471 366514
367415 366776
367416 367118
28472 366761
367417 366773
367418 366788
367419 367130
367420 366550
367421 366546
367422 366843
367423 367188
367424 367218
367425 366981
367426 366600
367427 366605
367428 366927
28484 366732
367429 366918
367430 367257
367431 366588
367432 367220
367433 367286
367434 366954
367435 366591
367436 367305
367437 366619
367438 367316
367439 366701
367440 366622
367441 367029
367442 367320
367443 367030
367444 367038
367445 367317
367446 366623
367447 367040
367448 366705
367449 367309
367450 366631
367451 366729
367452 367114
367453 366646
367454 367122
367455 367144
367456 367145
367457 367343
367458 367344
367459 367248
367460 367258
367461 366982
367462 366985
367463 366644
367464 367287
367465 367138
367466 366790
367467 366783
367468 367083
367469 367158
367470 366556
367471 366794
367472 366657
367473 366916
367474 367192
367475 366585
367476 367202
367477 366668
367478 366864
367479 367208
367480 366935
367481 366612
367482 367013
367483 367280
367484 367010
367485 367323
367486 367035
367487 366707
367488 367329
367489 366713
367490 367041
367491 367049
367492 366714
367493 367051
367494 366716
367495 366715
367496 367042
367497 366630
367498 366504
367499 366718
367500 366505
367501 366721
367502 367073
367503 366635
367504 367075
367505 366636
367506 367047
367507 367086
367508 367093
367509 366739
367510 366641
367511 366740
367512 366777
367513 366778
367514 366649
367515 367131
367516 366524
367517 366786
367518 367140
367519 366792
367520 367149
367521 367092
367522 366810
367523 366809
367524 367161
367525 367168
367526 366819
367527 366533
367528 367112
367529 366662
367530 366534
367531 366822
367532 367176
367533 366828
367534 367123
367535 366665
367536 366841
367537 367209
367538 366867
367539 366555
367540 367211
367541 366870
367542 366674
367543 367213
367544 366675
367545 367215
367546 366886
367547 367223
367548 366679
367549 367233
367550 366887
367551 367241
367552 366896
367553 366565
367554 367177
367555 366681
367556 366566
367557 366899
367558 367244
367559 366905
367560 366685
367561 367189
367562 367264
367563 367212
367564 366586
367565 366939
367566 367279
367567 367282
367568 366940
367569 366941
367570 366942
367571 366692
367572 366946
367573 366945
367574 367232
367575 367291
367576 366590
367577 367270
367578 366998
367579 366606
367580 367319
367581 367007
367582 367008
367583 367006
367584 366614
367585 367017
367586 366709
367587 367331
367588 366615
367589 367019
367590 367304
367591 366710
367592 367332
367593 367025
367594 367333
367595 367028
367596 367334
367597 367032
367598 367326
367599 366509
367600 367048
367601 366627
367602 366736
367603 366724
367604 367059
367605 367062
367606 366750
367607 367072
367608 366518
367609 366780
367610 367084
367611 366795
367612 366638
367613 366805
367614 366753
367615 367109
);
    cutPointEdgePairMap 
389
(
367720 ((54455 39353) (367083 367138))
367721 ((39355 54455) (366790 366783))
367722 ((54430 54455) (366783 367083))
367723 ((54455 54936) (367138 366790))
367724 ((39820 15281) (366794 366657))
367725 ((16210 39820) (367158 366556))
367726 ((55317 39820) (366556 366794))
367727 ((55320 39820) (366657 367158))
367728 ((39924 28737) (366916 367192))
367729 ((39924 15414) (367185 367192))
367730 ((16341 39924) (366916 366915))
367731 ((55459 55460) (366864 366585))
367732 ((55459 39953) (366668 366864))
367733 ((55430 55459) (367202 366668))
367734 ((40590 55459) (366585 367202))
367735 ((55459 55460) (367208 366935))
367736 ((55976 55975) (367010 366612))
367737 ((55976 55975) (367013 367280))
367738 ((29007 41848) (367323 367035))
367739 ((55976 56488) (366707 367329))
367740 ((41239 55976) (367329 366612))
367741 ((41236 55976) (367010 366707))
367742 ((53898 38648) (367041 367049))
367743 ((38673 13473) (367041 367049))
367744 ((13473 38674) (366713 367041))
367745 ((38648 54357) (367049 366714))