/*--------------------------------*- C++ -*----------------------------------*\
| =========                 |                                                 |
| \\      /  F ield         | OpenFOAM: The Open Source CFD Toolbox           |
|  \\    /   O peration     | Version:  5.x                                   |
|   \\  /    A nd           | Web:      www.OpenFOAM.org                      |
|    \\/     M anipulation  |                                                 |
\*---------------------------------------------------------------------------*/
FoamFile
{
    version     2.0;
    format      ascii;
    class       polyTopoChanger;
    location    "constant/polyMesh";
    object      meshModifiers;
}
// * * * * * * * * * * * * * * * * * * * * * * * * * * * * * * * * * * * * * //

1
(
couple
{
    type slidingInterface;
    masterFaceZoneName tumor_exttumor_intMasterZone;
    slaveFaceZoneName tumor_exttumor_intSlaveZone;
    cutPointZoneName tumor_exttumor_intCutPointZone;
    cutFaceZoneName tumor_exttumor_intCutFaceZone;
    masterPatchName tumor_ext;
    slavePatchName tumor_int;
    typeOfMatch partial;
    coupleDecouple true;
    projection visible;
    attached true;
    active true;
masterFaceCells List<label> 
260
(
11521
11522
11550
11573
11592
11593
11612
12406
12436
12463
12484
12502
12519
12535
12536
13312
13313
13343
13370
13392
13410
13426
13443
14254
14280
14302
14322
14339
15199
15200
15224
15225
34854
34860
34889
34890
34891
34896
34897
34898
34925
34927
34932
34933
35571
35572
35578
35579
35607
35609
35610
35611
35612
35613
35614
35616
35618
35648
35650
35652
35680
35681
35682
35684
35686
35705
35707
35709
35710
35711
35712
35713
35719
35733
35737
35744
36317
36321
36322
36324
36325
36328
36329
36369
36370
36371
36414
36416
36418
36455
36457
36458
36486
36487
36488
36514
36516
36517
37118
37122
37123
37125
37126
37127
37128
37130
37136
37166
37171
37172
37175
37215
37217
37219
37253
37255
37286
37287
37288
37319
37936
37967
37973
37974
38015
38042
38047
34888
34895
34924
35678
35683
34931
36323
36331
36372
35651
36412
36451
36489
35736
37173
37213
37251
37320
37346
37928
37972
37935
37975
38016
38072
38076
38106
38108
35620
35654
35656
35657
35708
35688
35689
35717
35742
35738
35743
36327
36335
36373
36374
36380
36420
36422
36424
36459
36463
36465
36490
36491
36492
36519
36539
36542
36521
36545
36524
36548
36523
36544
36549
37929
37132
37966
37177
37174
38011
37221
37223
37225
38017
37258
37261
37289
37263
38049
37259
38065
38067
37290
37291
37292
37323
37315
37317
37341
38099
37321
37345
37348
37325
37349
38107
37340
37342
37971
38708
37976
37977
38714
37979
37982
38013
38743
38744
38745
38018
38750
38751
38752
38020
38044
38046
38778
38780
38048
38051
38785
38786
38050
38053
38073
38074
38075
38077
38078
38079
38081
38105
38100
38102
)
;
slaveFaceCells  List<label> 
348
(
500554
500830
500832
500951
500480
500481
500482
500483
500484
500485
500486
500487
500488
500489
500490
500491
500492
500493
500494
500495
500496
500500
500504
500508
500512
500518
500521
500522
500523
500524
500525
500526
500530
500534
500538
500542
500546
500552
500553
500557
500558
500562
500566
500572
500573
500575
500576
500577
500598
500620
500649
500650
500651
500663
500669
500682
500687
500690
500703
500704
500706
500710
500723
500726
500741
500751
500753
500755
500765
500767
500769
500781
500783
500793
500795
500797
500804
500826
500827
500828
500829
500833
500847
500850
500851
500861
500863
500865
500875
500877
500879
500889
500891
500893
500903
500905
500907
500917
500919
500921
500929
500930
500931
500934
500940
500948
500952
500953
500954
500955
500956
500957
500958
500960
500962
500967
500968
500969
500975
500976
500977
500987
500988
500989
500994
500995
500996
500999
501001
501003
501005
501006
501011
501012
501013
501018
501019
501020
501021
501023
501024
501025
501027
501028
501033
501035
501040
501041
501042
501043
501044
501045
501052
501054
501059
501060
501061
501062
501064
501066
501068
501069
501070
501072
501073
501074
501076
501077
501078
501079
500625
500627
500691
500693
500702
500697
500707
500735
500749
500763
500777
500798
500809
500831
500873
500887
500901
500915
500927
500923
500932
500949
500846
500959
500855
500961
500997
501046
501063
500950
501075
500966
500986
500993
501000
501010
501017
501032
501039
501058
500586
500591
500592
500593
500600
500606
500607
500608
500613
500614
500615
500631
500632
500633
500638
500639
500640
500645
500654
500655
500656
500661
500662
500673
500675
500680
500681
500692
500584
500578
500579
500712
500580
500581
500582
500583
500585
500602
500729
500599
500737
500601
500604
500622
500624
500629
500626
500647
500653
500670
500779
500671
500672
500674
500688
500791
500689
500695
500699
500701
500705
500708
500709
500821
500716
500719
500722
500711
500715
500731
500727
500739
500733
500743
500745
500747
500757
500759
500761
500771
500773
500775
500785
500787
500789
500800
500802
500799
500806
500808
500811
500813
500810
500836
500840
500843
500834
500839
500835
500859
500853
500857
500867
500869
500871
500881
500883
500885
500895
500897
500899
500909
500911
500913
500925
500926
500933
500973
500974
500979
500981
500982
501034
501047
501051
501053
500522
500522
500813
500821
500831
500831
500940
500948
500952
500952
500956
500956
)
;
masterStickOutFaces List<label> 
1036
(
217088
212992
212993
217089
217090
217091
212995
217092
212996
217093
217094
217095
213000
217096
213001
217097
213002
217098
213003
217099
217100
217101
213006
217102
217103
81935
217104
81936
217105
81937
81938
213012
217109
213013
217110
213014
217111
217112
213016
221229
221231
221233
221235
221236
221250
221252
221255
221256
82035
82036
82037
82038
82039
82040
213112
82041
213113
82044
213118
213119
213124
213125
217226
217227
217228
213132
217229
213133
213134
75918
217231
213135
75919
75920
217232
213136
213137
217233
75921
217234
213138
75922
75923
213139
213140
75925
217237
213141
75926
217238
213142
217239
217240
217241
217242
217243
213147
217244
217245
217246
213152
217249
217250
217251
217252
213159
213160
221359
221361
221363
221365
221366
221380
221382
221385
221386
442614
217339
217340
217341
217342
217344
217345
217346
217347
442627
217350
217351
217352
217353
217354
217355
217356
217357
217358
217359
217360
213265
217361
217362
213266
217363
217364
217365
213270
213271
217368
217369
217370
217371
213275
213276
213281
213282
213286
213291
76079
213296
213297
76081
76082
76083
217424
217425
217426
217429
217430
217431
217434
217435
217441
217442
217444
217445
217446
217447
217448
217449
217450
217452
217453
217455
217456
483696
217457
483698
217458
217459
217460
209268
217461
209269
217463
217464
209272
209273
217466
209274
217467
217468
483708
209276
209277
217469
483709
209278
217472
217473
217474
209283
209284
209285
213382
217479
213383
209287
209288
209289
213387
209291
213388
209292
209294
213392
209296
213393
209297
209299
209300
209302
213398
213399
209303
213400
209305
213401
213402
209306
213403
213404
213405
209312
209313
213409
209314
209315
209316
209317
213414
209320
213419
213420
76204
209326
76206
209327
76207
209328
76208
209329
217533
217534
217535
217536
217537
217538
217539
217540
217541
217542
217543
217545
217549
498126
471503
217552
217553
217554
217555
217556
217557
217558
217559
471511
217560
217561
217562
217564
213469
213480
213489
213490
213491
213492
213493
213494
213495
213497
213498
213499
213500
213502
213503
92691
209427
92692
209428
92693
76311
76312
92697
76313
92698
76314
92699
209435
76315
76316
92700
209436
76317
209437
209438
76320
209443
209444
209445
209451
209452
209453
209454
209455
209456
209457
209463
209464
209470
442947
213571
213572
209477
442950
213574
209478
213575
213576
213577
213579
213580
213581
442959
213585
213586
213587
442963
213588
213589
213590
213591
213594
213595
213596
213598
213599
213600
213601
428643
428656
76406
76407
76408
76409
76410
76412
76413
76414
70280
70281
70282
70286
70287
213648
70288
213649
70289
70290
213651
70291
213652
70292
70293
213654
70294
70295
213655
70296
213656
70297
213657
213658
70298
213659
70300
213660
213664
213667
213668
213669
213670
213671
213674
213675
213676
213677
213678
213679
209585
209586
209587
209592
209593
209594
209598
92862
209599
92863
92864
92866
92867
209604
92868
209605
92869
92870
92872
92873
92874
209610
209611
92876
209617
209622
209623
76504
76505
76506
76507
76508
76509
76510
76511
76512
76513
76514
76515
76518
484125
209713
209714
209715
70454
70455
209720
70456
209721
70457
209722
209723
70460
498493
70461
86846
70462
86847
209727
70463
205631
86848
209728
205632
498498
205634
205635
86852
205636
86853
209733
205637
86854
209734
86855
205639
209735
209736
205640
205643
205644
209741
205645
209742
205647
205648
443217
205649
205650
93011
93012
209748
93013
93015
205655
93016
205656
209753
93017
93018
209754
205658
93019
205659
93021
205661
443229
93022
205662
93023
205663
93025
205665
205666
205669
205670
205671
209805
209819
209820
209828
209829
209830
209831
209832
209833
209834
209836
209837
209838
209839
209841
209842
70592
70593
70594
70595
70598
70599
70600
70601
93131
93132
93133
93137
93138
93139
93140
429012
205780
205781
429015
205783
205784
205785
205788
205789
205790
205791
205792
429024
205793
205795
205796
429028
205797
205798
205799
205800
205801
205802
205805
205806
205807
205808
205811
205812
205813
205814
205815
457721
205817
209914
205818
87035
209915
205819
87036
209916
87037
209917
87038
87039
209920
87041
457729
209921
87042
209922
87043
209923
209925
209926
209929
209930
209931
209932
209933
209934
209935
209936
209937
209941
209942
209944
209945
209946
209947
201773
201774
201777
70706
201778
70707
201779
70709
201781
201782
201783
201784
70712
70713
201785
201786
70714
70715
70716
70717
70718
70719
70720
70721
70722
70723
70724
70725
201798
201799
201801
201802
209997
201805
201806
209998
209999
201807
210000
201808
201809
210003
210004
210007
210008
210009
210010
210013
210014
210016
210017
210018
210019
210020
210022
205930
210026
210027
205931
210028
205932
205933
210029
210030
484462
498799
210032
205936
205937
205938
205939
484467
205940
205941
205942
205943
205945
205946
205947
205948
205951
205952
205953
205954
87197
87198
87199
87200
87201
87202
87203
87205
70826
70827
70828
70829
70831
70832
70833
70834
70835
70837
70838
70842
201921
201922
201923
201924
201925
201926
201927
201928
201929
201930
201941
201942
201943
206040
201944
201945
206041
206042
201946
206043
201947
201948
206046
206047
206048
206049
206050
206051
206052
206053
206054
206055
206056
206057
206059
206060
206061
206062
206065
206066
206067
206068
206069
429315
429327
87328
443681
87329
87330
87331
87332
87333
87334
443686
87336
443688
443691
206125
206126
443699
443700
206132
206133
206135
443704
206136
206137
206139
206140
206141
206143
206144
206145
206146
206147
206148
206149
206150
206151
202055
202056
206152
202057
206154
202058
202059
202060
206157
202061
202062
202063
202064
202065
206163
206164
206165
206166
206168
206169
206170
202076
206172
202077
202078
202079
202080
202081
202082
202083
202084
81256
81257
81258
81259
81261
81262
81263
81264
81266
81267
81269
81270
484738
206222
206224
206225
87442
87443
87444
206228
87445
206229
87446
206232
87448
206233
87449
87450
206234
206235
206236
206237
206238
206239
206240
206242
206243
206245
206249
206250
206251
206252
206253
206254
202174
202178
202179
202197
202200
87541
87542
87544
87547
87548
87549
87550
87551
87552
87553
87554
87555
443909
443910
443924
443927
81442
81443
443939
81444
81445
81446
443942
81447
81449
81450
87645
87646
87647
87648
87651
87652
87653
87654
87657
87658
87659
81603
81604
81606
81607
81733
81734
81736
81737
442187
442191
442195
216918
216921
216922
442202
216923
216924
216925
485215
485216
485220
216934
216935
216936
216938
216939
216941
216944
216945
216946
216947
216955
216956
216958
216959
221090
221093
221095
221097
221098
81841
81842
81843
81844
81845
81846
81847
81850
221114
221117
221120
221121
75732
75733
75734
75735
75736
75738
75739
75740
212957
75741
212958
75743
212960
75745
212961
75746
212963
212968
212969
217066
217067
217068
212972
217069
212973
217070
217071
212975
212976
212977
217074
212978
217075
217076
212980
212981
217078
217079
212983
212984
212986
217082
217083
212987
217084
217085
212989
217086
217087
212991
)
;
slaveStickOutFaces List<label> 
964
(
1499136
1499137
1499145
1499146
1499147
1499148
1499149
1499150
1499151
1499152
1499153
1499154
1499156
1499157
1499158
1499159
1499160
1499161
1499162
1499163
1499164
1499165
1499166
1499167
1499169
1499171
1499172
1499173
1499174
1499175
1499176
1499177
1499178
1499181
1499189
1499190
1499191
1499192
1499193
1499194
1499195
1499196
1499197
1499198
1499212
1499214
1499215
1499216
1499217
1499218
1499219
1499221
1499223
1499224
1499232
1499233
1499234
1499235
1499236
1499237
1499238
1499239
1499241
1499242
1499250
1499251
1499252
1499253
1499254
1499255
1499256
1499257
1499259
1499261
1499262
1499263
1499265
1499266
1499267
1499268
1499269
1499270
1499271
1499272
1499273
1499274
1499275
1499276
1499277
1499278
1499279
1499280
1499281
1499282
1499283
1499284
1499285
1499286
1499287
1499288
1499289
1499290
1499291
1499292
1499293
1499294
1499295
1499296
1499297
1499299
1499300
1499301
1499302
1499304
1499307
1499312
1499313
1499314
1499316
1499317
1499318
1499320
1499321
1499322
1499326
1499327
1499329
1499330
1499331
1499332
1499333
1499334
1499335
1499336
1499337
1499338
1499339
1499340
1499341
1499342
1499343
1499344
1499346
1499348
1499350
1499353
1499354
1499366
1499367
1499368
1499371
1499372
1499376
1499384
1499385
1499386
1499387
1499388
1499389
1499390
1499392
1499393
1499394
1499395
1499396
1499397
1499398
1499399
1499400
1499401
1499404
1499405
1499406
1499408
1499410
1499412
1499415
1499416
1499428
1499430
1499433
1499434
1499446
1499447
1499448
1499449
1499450
1499451
1499452
1499454
1499455
1499456
1499457
1499458
1499459
1499460
1499461
1499462
1499463
1499464
1499466
1499467
1499469
1499470
1499472
1499477
1499482
1499483
1499484
1499486
1499487
1499490
1499491
1499496
1499497
1499499
1499500
1499501
1499502
1499503
1499504
1499505
1499506
1499507
1499508
1499509
1499510
1499512
1499513
1499514
1499515
1499516
1499518
1499522
1499523
1499526
1499528
1499529
1499530
1499531
1499532
1499535
1499536
1499538
1499539
1499541
1499542
1499544
1499545
1499546
1499547
1499548
1499549
1499550
1499551
1499552
1499553
1499554
1499555
1499556
1499557
1499558
1499561
1499562
1499563
1499564
1499565
1499567
1499568
1499569
1499570
1499571
1499573
1499574
1499576
1499577
1499578
1499579
1499580
1499581
1499582
1499583
1499584
1499585
1499586
1499587
1499588
1499589
1499590
1499591
1499592
1499593
1499594
1499595
1499596
1499597
1499598
1499599
1499600
1499602
1499604
1499605
1499607
1499608
1499610
1499615
1499616
1499617
1499619
1499620
1499621
1499622
1499624
1499625
1499629
1499630
1499632
1499633
1499634
1499635
1499636
1499637
1499638
1499640
1499642
1499643
1499645
1499648
1499649
1499653
1499654
1499655
1499658
1499659
1499660
1499663
1499664
1499669
1499670
1499674
1499679
1499684
1499685
1499689
1499690
1499694
1499695
1499699
1499700
1499705
1499706
1499710
1499715
1499720
1499721
1499725
1499726
1499730
1499731
1499735
1499736
1499741
1499742
1499743
1499745
1499746
1499748
1499751
1499756
1499757
1499761
1499762
1499763
1499766
1499767
1499771
1499772
1499777
1499778
1499779
1499781
1499782
1499783
1499784
1499787
1499791
1499792
1499793
1499794
1499797
1499798
1499799
1499800
1499802
1499806
1499807
1499808
1499809
1499812
1499813
1499814
1499815
1499816
1499817
1499818
1499819
1499820
1499821
1499824
1499825
1499826
1499827
1499829
1499830
1499831
1499832
1499834
1499835
1499836
1499837
1499838
1499840
1499841
1499842
1499843
1499844
1499845
1499846
1499847
1499850
1499851
1499853
1499854
1499856
1499863
1499864
1499868
1499869
1499870
1499871
1499873
1499874
1499878
1499879
1499885
1499886
1499887
1499888
1499889
1499890
1499891
1499892
1499893
1499894
1499895
1499896
1499897
1499898
1499899
1499900
1499901
1499903
1499905
1499909
1499910
1499911
1499912
1499913
1499914
1499915
1499916
1499917
1499919
1499920
1499923
1499924
1499926
1499927
1499928
1499929
1499930
1499932
1499933
1499934
1499935
1499936
1499938
1499940
1499944
1499945
1499946
1499947
1499948
1499949
1499950
1499951
1499952
1499954
1499955
1499959
1499960
1499961
1499962
1499963
1499964
1499965
1499966
1499967
1499969
1499973
1499977
1499978
1499980
1499983
1499984
1499988
1499989
1499993
1499994
1499995
1499998
1499999
1500004
1500005
1500009
1500014
1500019
1500020
1500024
1500025
1500029
1500030
1500034
1500035
1500040
1500041
1500045
1500049
1500050
1500051
1500052
1500054
1500055
1500056
1500057
1500059
1500060
1500064
1500065
1500066
1500067
1500069
1500070
1500071
1500072
1500073
1500075
1500078
1500079
1500080
1500081
1500083
1500084
1500085
1500086
1500088
1500089
1500090
1500092
1500093
1500094
1500095
1500097
1500098
1500099
1500100
1500102
1500103
1500104
1500105
1500107
1500108
1500109
1500110
1500111
1500113
1500114
1500116
1500117
1500118
1500119
1500120
1500121
1500123
1500125
1500126
1500127
1500128
1500129
1500130
1500131
1500136
1500140
1500141
1500142
1500143
1500145
1500147
1500148
1500149
1500150
1500151
1500152
1500153
1500157
1500158
1500159
1500160
1500161
1500163
1500164
1500165
1500166
1500167
1500168
1500169
1500170
1500171
1500172
1500173
1500174
1500175
1500176
1500177
1500178
1500179
1500180
1500181
1500182
1500183
1500185
1500188
1500194
1500195
1500196
1500197
1500198
1500199
1500200
1500201
1500202
1500203
1500204
1500208
1500209
1500210
1500212
1500213
1500214
1500215
1500216
1500217
1500218
1500219
1500220
1500221
1500223
1500224
1500225
1500226
1500227
1500238
1500239
1500240
1500241
1500242
1500243
1500244
1500245
1500247
1500256
1500257
1500258
1500259
1500260
1500261
1500262
1500263
1500264
1500265
1500266
1500267
1500268
1500269
1500270
1500271
1500272
1500273
1500275
1500276
1500277
1500278
1500279
1500290
1500291
1500292
1500293
1500294
1500295
1500296
1500297
1500308
1500309
1500310
1500311
1500312
1500313
1500314
1500315
1500316
1500317
1500318
1500319
1500320
1500321
1500322
1500323
1500324
1500325
1500326
1500331
1500337
1500338
1500339
1500340
1500341
1500342
1500343
1500344
1500345
1500346
1500351
1500352
1500353
1500355
1500356
1500357
1500358
1500359
1500360
1500361
1500362
1500363
1500364
1500368
1500369
1500371
1500373
1500375
1500376
1500377
1500378
1500379
1500380
1500381
1500382
1500383
1500385
1500386
1500388
1500389
1500390
1500392
1500393
1500394
1500395
1500396
1500397
1500398
1500399
1500400
1500402
1500403
1500404
1500405
1500406
1500408
1500409
1500410
1500411
1500413
1500414
1500416
1500417
1500418
1500419
1500420
1500421
1498770
1498771
1498772
1498773
1498774
1498775
1498776
1498777
1498778
1498779
1498780
1498781
1498782
1498783
1498784
1498785
1498787
1498788
1498789
1498790
1498791
1498792
1498793
1498795
1498796
1498797
1498798
1498800
1498801
1498802
1498803
1498804
1498805
1498806
1498807
1498808
1498809
1498810
1498811
1498812
1498814
1498815
1498816
1498817
1498818
1498819
1498820
1498821
1498822
1498823
1498824
1498826
1498827
1498828
1498829
1498830
1498831
1498832
1498833
1498834
1498835
1498836
1498837
1498838
1498839
1498840
1498841
1498842
1498852
1498853
1498854
1498855
1498856
1498857
1498858
1498859
1498860
1498861
1498862
1498875
1498876
1498877
1498881
1498882
1498884
1498885
1498904
1498905
1498906
1498907
1498908
1498921
1498923
1498924
1498927
1498928
1498929
1498930
1498943
1498944
1498945
1498946
1498961
1498962
1498963
1498964
1498966
1498967
1498968
1498969
1498970
1498971
1498972
1498974
1498975
1498978
1498979
1498980
1498981
1498982
1498983
1498984
1498985
1498986
1498987
1498988
1498989
1498990
1498991
1498992
1498993
1498994
1498996
1498997
1498998
1498999
1499000
1499013
1499014
1499015
1499017
1499019
1499020
1499022
1499023
1499042
1499043
1499045
1499046
1499065
1499066
1499068
1499069
1499088
1499089
1499091
1499092
1499111
1499112
1499113
1499114
1499128
1499129
1499130
1499131
1499134
)
;
    retiredPointMap 
402
(
38928 535680
40009 535766
15433 535377
40012 535768
40015 535769
54364 535604
15459 535771
15460 535773
15461 535774
40040 536045
40043 536048
40044 535778
15483 535782
40068 536060
40071 536063
54415 535959
54418 535966
14515 535709
14516 535719
54460 536001
54463 536008
14553 535370
14554 535372
54496 536017
14571 535374
13556 535315
13557 535319
53504 535851
53506 535852
53509 535856
53513 535859
13580 535628
13581 535635
13600 535648
13601 535655
13634 535343
13635 535345
38219 535797
38220 535867
38221 535799
38223 535872
12650 535538
12651 535548
38253 535525
38257 535535
38283 535892
38286 535897
12688 535305
12689 535307
12706 535309
38306 535908
11685 535271
38310 535913
38328 535587
38330 535593
11711 535480
11712 535483
11713 535485
11735 535498
39391 535944
39393 535947
28131 535389
28132 535392
39424 535697
39430 535707
39497 535754
39501 535760
28244 535865
28245 535866
536168 535786
536169 535796
536170 535467
536171 535800
536172 535798
536173 535469
536174 535468
536175 535787
536176 535270
536177 535471
536178 535474
536179 535272
536180 535809
536181 535478
536182 535273
536183 535479
536184 535274
54905 536036
536185 535482
54906 536039
536186 535275
28282 535425
536187 535396
28283 535426
536188 535820
53885 535512
536189 535276
53886 535600
536190 535488
536191 535792
53888 535602
536192 535487
536193 535277
536194 535793
536195 535490
536196 535278
536197 535493
536198 535838
536199 535400
536200 535831
536201 535842
536202 535495
536203 535279
536204 535497
536205 535280
536206 535504
536207 535404
536208 535511
536209 535802
536210 535514
536211 535868
536212 535876
536213 535284
536214 535526
536215 535289
536216 535539
536217 535294
536218 535552
536219 535900
536220 535551
536221 535564
536222 535843
536223 535420
536224 535922
54945 536064
536225 535424
536226 535595
536227 535597
536228 535601
536229 535606
536230 535941
54951 536067
536231 535949
536232 535607
536233 535619
536234 535320
536235 535629
536236 535325
536237 535639
536238 535979
53934 535884
536239 535330
536240 535649
53937 535889
536241 535335
536242 535439
536243 535658
536244 536007
536245 535674
536246 535932
536247 535444
536248 535678
536249 535693
536250 535958
536251 536028
536252 535695
536253 535349
536254 535696
536255 536024
536256 535354
536257 536033
536258 535453
536259 535359
536260 536042
536261 535457
536262 535982
536263 535721
536264 535998
536265 536061
536266 535463
536267 536066
536268 535465
536269 536069
536270 535758
536271 536068
536272 535466
536273 535810
536274 535521
536275 535470
536276 535806
536277 535298
536278 535833
536279 535823
536280 535397
28376 535938
536281 535834
28377 535939
536282 535841
536283 535561
536284 535847
536285 535850
536286 535405
536287 535854
536288 535860
536289 535605
536290 535875
536291 535616
536292 535881
536293 535536
536294 535293
536295 535549
536296 535324
536297 535562
536298 535329
536299 535905
536300 535334
536301 535573
536302 535339
536303 535599
536304 535596
536305 535948
536306 535613
536307 535626
536308 535956
536309 535353
536310 535704
536311 535636
536312 535358
536313 535646
536314 535363
536315 535656
536316 535986
54012 535934
536317 535731
536318 535988
28414 535445
54014 535935
536319 535440
28415 535446
536320 535665
536321 535441
54017 535937
536322 536000
536323 535762
536324 535682
536325 535763
52997 535788
536326 536021
536327 535689
536328 535684
53000 535789
536329 535692
536330 536022
536331 536023
536332 535700
536333 535952
536334 535764
536335 536027
536336 535765
536337 535376
536338 536030
536339 535767
536340 535378
536341 535706
536342 536031
536343 535379
536344 535770
37656 535472
536345 535380
536346 535772
536347 535381
37659 535475
536348 536040
536349 535382
37661 535477
536350 535775
536351 535383
536352 535777
536353 535384
536354 535456
536355 536049
536356 536050
536357 535776
536358 536053
536359 535385
536360 535780
536361 535779
536362 536056
536363 535781
536364 536054
536365 535460
536366 535386
536367 535785
536368 535464
536369 535812
536370 535393
536371 535403
536372 535508
536373 535857
536374 535406
536375 535288
37687 535790
536376 535419
536377 535917
37689 535791
536378 535421
37690 535491
536379 535667
536380 535925
536381 535686
536382 535992
536383 536057
536384 535473
536385 535801
536386 535524
536387 535532
536388 535496
536389 535848
536390 535503
536391 535510
536392 535563
536393 535914
536394 535581
536395 535592
536396 535929
536397 535308
536398 536164
536399 535863
536400 535864
536401 535659
37713 535794
536402 535991
536403 536016
536404 535348
37716 535795
536405 535739
536406 535741
536407 535745
536408 536059
536409 535749
536410 535751
536411 536012
536412 535755
536413 535283
536414 535500
536415 535506
536416 535570
536417 535507
536418 535585
536419 535509
536420 535861
536421 535281
536422 535513
536423 535584
536424 535933
536425 535936
536426 535685
536427 535666
28523 535449
28524 535452
536428 535997
536429 535759
536430 536009
536431 535752
536432 535373
536433 535375
536434 536013
536435 536018
536436 536166
536437 536019
536438 536020
536439 536167
38775 535311
536440 535346
536441 535683
536442 535735
536443 535732
536444 535783
536445 535784
536446 536062
536447 535761
536448 536015
536449 535845
536450 535501
536451 535502
536452 535910
536453 535574
536454 535924
536455 535310
536456 536165
536457 535742
536458 535862
536459 535575
38806 535940
38808 535945
38837 535618
38840 535625
38865 535638
38866 535969
38868 535645
38869 535976
38888 535989
38891 535996
);
    cutPointEdgePairMap 
140
(
536576 ((53504 37715) (535574 535502))
536577 ((38304 53506) (535574 535502))
536578 ((53959 38304) (535843 535574))
536579 ((38352 53531) (535597 535862))
536580 ((38352 54000) (535597 535310))
536581 ((53956 38865) (535900 535564))
536582 ((28273 53959) (535575 535910))
536583 ((53978 28273) (535917 535419))
536584 ((38351 53995) (535596 535924))
536585 ((53998 38351) (535596 535308))
536586 ((13556 38838) (535949 535619))
536587 ((38838 14491) (535349 535619))
536588 ((54436 38865) (535979 535649))
536589 ((54436 39453) (535721 535979))
536590 ((54440 39473) (535732 535649))
536591 ((39473 54439) (535992 535742))
536592 ((54476 38927) (536009 535678))
536593 ((54883 28517) (536022 536030))
536594 ((54923 39476) (535780 535735))
536595 ((39476 54926) (536057 535745))
536596 ((53998 38351) (535933 536164))
536597 ((38352 54000) (536165 535864))
536598 ((54479 38927) (535373 535678))
536599 ((54482 39522) (535375 535763))
536460 ((52973 28124) (535786 535796))
536461 ((28124 53440) (535467 535800))
536462 ((28125 52976) (535787 535798))
536463 ((37655 11684) (535471 535270))
536464 ((53020 37688) (535488 535792))
536465 ((53484 37715) (535495 535496))
536466 ((53489 28142) (535848 535503))
536467 ((53442 28252) (535802 535514))
536468 ((53909 28252) (535868 535876))
536469 ((12626 38254) (535284 535526))
536470 ((53956 38282) (535900 535551))
536471 ((38304 53486) (535563 535564))
536472 ((53981 28279) (535424 535922))
536473 ((38349 53998) (536164 535863))
536474 ((38349 53998) (535595 535308))
536475 ((54388 28384) (535941 535949))
536476 ((28405 54439) (535659 535991))
536477 ((54462 28411) (535444 536007))
536478 ((28385 54393) (535693 535958))
536479 ((28517 54882) (536028 535695))
536480 ((28529 54932) (535741 535739))
536481 ((39477 54932) (535998 536061))
536482 ((54932 39478) (535998 536061))
536483 ((54463 39477) (535751 535749))
536484 ((39478 54951) (535751 535749))
536485 ((28538 54949) (536066 535465))
536486 ((28539 54952) (536068 535466))
536487 ((28253 53446) (535810 535521))
536488 ((53443 28125) (535470 535806))
536489 ((37692 53023) (535493 535793))
536490 ((37690 53023) (535793 535497))
536491 ((53488 37720) (535497 535500))
536492 ((37720 53489) (535506 535847))
536493 ((28137 53491) (535570 535500))
536494 ((38307 53491) (535847 535850))
536495 ((53491 37720) (535847 535850))
536496 ((37738 12688) (535507 535851))
536497 ((12688 38325) (535852 535585))
536498 ((12689 38329) (535592 535859))
536499 ((12689 37744) (535856 535509))
536500 ((28146 53508) (535405 535854))
536501 ((53528 38349) (535861 535595))
536502 ((13557 38258) (535881 535536))
536503 ((38868 53960) (535905 535573))
536504 ((38307 53961) (535850 535581))
536505 ((53961 28274) (535914 535584))
536506 ((28274 53981) (535922 535420))
536507 ((53999 38356) (535929 535599))
536508 ((13557 38841) (535626 535956))
536509 ((54392 28385) (535948 535956))
536510 ((14492 38841) (535626 535353))
536511 ((54441 38868) (535656 535986))
536512 ((39456 54441) (535986 535731))
536513 ((54443 39477) (535656 535739))
536514 ((39477 54442) (535749 535998))
536515 ((54442 28406) (535666 535997))
536516 ((28406 54462) (536007 535440))
536517 ((39500 14554) (535759 536008))
536518 ((28410 54459) (535441 536000))
536519 ((39519 54480) (536012 535762))
536520 ((54479 39519) (535762 535373))
536521 ((54481 38931) (536013 535682))
536522 ((38931 54482) (535682 535375))
536523 ((54479 38927) (536016 536166))
536524 ((54479 39519) (536166 536018))
536525 ((38931 54482) (536167 536019))
536526 ((54482 39522) (536020 536167))
536527 ((28516 54881) (536027 536021))
536528 ((40008 15433) (536027 535765))
536529 ((40008 15432) (535765 535376))
536530 ((40011 15433) (536030 535767))
536531 ((40011 15434) (535378 535767))
536532 ((54924 28528) (535735 535732))
536533 ((54927 40044) (535780 536053))
536534 ((40047 54930) (535779 536056))
536535 ((40044 54930) (536056 535781))
536536 ((39478 54928) (535741 535781))
536537 ((54929 39478) (536061 535751))
536538 ((28534 54929) (536062 535784))
536539 ((39498 14553) (536064 535755))
536540 ((39494 14553) (535752 536001))
536541 ((54949 28533) (535463 536066))
536542 ((28533 54926) (536059 535783))
536543 ((54952 28534) (536068 535464))
536544 ((39502 14554) (536067 535761))
536545 ((39522 54483) (536015 535763))
536546 ((53487 28141) (535501 535845))