/*--------------------------------*- C++ -*----------------------------------*\
| =========                 |                                                 |
| \\      /  F ield         | OpenFOAM: The Open Source CFD Toolbox           |
|  \\    /   O peration     | Version:  5.x                                   |
|   \\  /    A nd           | Web:      www.OpenFOAM.org                      |
|    \\/     M anipulation  |                                                 |
\*---------------------------------------------------------------------------*/
FoamFile
{
    version     2.0;
    format      ascii;
    class       polyTopoChanger;
    location    "constant/polyMesh";
    object      meshModifiers;
}
// * * * * * * * * * * * * * * * * * * * * * * * * * * * * * * * * * * * * * //

1
(
couple
{
    type slidingInterface;
    masterFaceZoneName tumor_exttumor_intMasterZone;
    slaveFaceZoneName tumor_exttumor_intSlaveZone;
    cutPointZoneName tumor_exttumor_intCutPointZone;
    cutFaceZoneName tumor_exttumor_intCutFaceZone;
    masterPatchName tumor_ext;
    slavePatchName tumor_int;
    typeOfMatch partial;
    coupleDecouple true;
    projection visible;
    attached true;
    active true;
masterFaceCells List<label> 
404
(
10635
10636
10659
10660
11490
11521
11547
11569
11587
11604
11619
11620
12396
12425
12450
12470
12488
12503
12517
12532
13289
13318
13343
13364
13382
13397
13412
13427
13441
14188
14189
14218
14244
14265
14283
14298
14314
14329
14330
15127
15128
15155
15178
15196
15197
15198
15215
15216
34822
34828
34854
34857
34859
34860
34862
34864
34865
34872
34901
34902
34903
34904
34905
34906
34907
34908
34909
34915
34916
34943
34945
34946
34948
34949
34950
34951
34959
34985
34993
34994
34999
35000
35001
35028
35030
35035
35036
35602
35608
35629
35631
35632
35633
35634
35640
35642
35676
35678
35679
35681
35682
35719
35721
35723
35724
35730
35756
35758
35759
35761
35784
35790
35791
35793
35813
35815
35817
35818
35821
35844
35846
35848
35849
35871
35878
36396
36399
36402
36403
36406
36409
36410
36416
36444
36446
36447
36486
36488
36489
36526
36527
36528
36559
36560
36561
36581
36583
36585
36611
36613
36637
36638
36639
36641
36660
37219
37226
37229
37230
37233
37236
37237
37267
37273
37274
37275
37313
37315
37322
37354
37355
37356
37385
37386
37408
37410
37412
37436
37438
37441
37462
37463
37465
37486
37489
38058
38087
38088
38094
38095
38133
38139
38140
38185
38186
38187
38217
38277
38279
38282
39017
34858
35677
35760
34991
35005
35027
35034
35635
36398
36445
36405
36484
35728
36491
36529
35765
36562
36563
36579
35816
36607
36614
36640
35870
36656
36663
35877
36666
37225
37232
37239
37312
37357
37389
37406
37434
38064
38096
38097
38141
38222
38243
38250
38251
38309
47840
38314
38974
38978
39018
39023
34866
34913
34992
34957
34953
34998
35637
35638
35644
35688
35726
35767
35788
35789
35797
35819
35823
35824
35847
35851
47822
36449
36450
36456
36493
36495
36530
36531
36532
36565
36566
36589
36587
36591
36615
36619
36621
47816
36643
36644
36664
36665
36696
36667
36672
36668
36702
37276
37280
37278
37317
37320
37319
38179
38181
37358
37359
37360
38189
37388
38215
37392
37390
37391
37414
37416
37418
37444
37466
37442
37446
38284
37482
38308
37469
37467
37468
37491
37518
37490
37492
37493
37494
37498
38340
38092
38888
38099
38894
38101
38104
38920
38925
38926
38142
38931
38144
38146
38938
38967
38968
38969
38193
38984
38223
39010
39012
39022
38224
38225
38227
39028
38253
39054
39061
39062
39063
39068
39069
39070
38254
38255
38256
38281
39097
39099
38283
38286
39104
39105
38285
38288
38310
38312
38333
38313
38315
38316
38930
38932
38935
38975
38976
38977
38979
38980
38981
38983
39019
39021
39024
39025
)
;
slaveFaceCells  List<label> 
536
(
500104
500105
500106
500107
500111
500115
500119
500123
500127
500130
500131
500133
500134
500135
500136
500144
500149
500154
500159
500164
500169
500170
500174
500180
500181
500182
500190
500195
500196
500206
500211
500216
500221
500222
500228
500229
500230
500233
500238
500243
500248
500253
500258
500259
500263
500269
500270
500271
500272
500273
500274
500275
500276
500277
500278
500280
500281
500282
500283
500284
500285
500286
500287
500288
500289
500303
500311
500316
500343
500344
500364
500365
500404
500445
500446
500458
500463
500506
500508
500529
500531
500533
500548
500549
500550
500555
500566
500578
500588
500589
500590
500596
500597
500606
500610
500615
500616
500617
500622
500623
500624
500626
500644
500645
500646
500656
500660
500661
500669
500671
500674
500686
500691
500693
500694
500695
500696
500708
500709
500722
500724
500725
500730
500731
500732
500740
500741
500743
500747
500749
500750
500751
500756
500757
500758
500763
500764
500765
500768
500784
500786
500797
500799
500801
500803
500805
500810
500812
500813
500815
500822
500830
500832
500833
500834
500835
500837
500838
500849
500850
500858
500861
500862
500863
500869
500877
500878
500879
500880
500892
500894
500895
500896
500909
500911
500912
500913
500920
500926
500928
500929
500937
500943
500945
500950
500951
500952
500969
500971
500972
500974
500976
500983
500984
500989
500990
500991
500992
500994
500996
500997
501000
501003
501004
501007
501009
501010
501012
501014
501015
501016
501017
501020
501021
501022
501024
501025
501026
501027
501028
501029
501030
501033
501035
501036
501037
501038
501039
501041
501043
501044
501045
501047
501048
501049
501050
501051
501053
501054
501055
501056
501057
501058
501059
501062
501063
501064
501065
501066
501067
501069
501071
501072
501073
501074
500298
500302
500307
500312
500322
500331
500335
500339
500347
500351
500355
500357
500361
500366
500409
500420
500427
500438
500481
500503
500543
500553
500558
500562
500591
500600
500602
500611
500618
500654
500668
500678
500700
500726
500733
500752
500759
500766
500787
500808
500814
500831
500839
500714
500841
500842
500930
500785
500946
500967
501011
500836
500848
500867
501018
500935
501060
500970
501068
500981
501075
500995
501002
501008
500320
500321
500326
500290
500294
500376
500291
500384
500389
500292
500293
500295
500296
500297
500299
500300
500301
500402
500305
500304
500306
500308
500309
500313
500315
500317
500422
500318
500319
500324
500328
500330
500332
500440
500333
500334
500450
500336
500337
500338
500340
500341
500342
500456
500346
500345
500468
500348
500349
500350
500352
500353
500354
500356
500474
500476
500483
500484
500358
500359
500360
500362
500363
500504
500509
500510
500516
500517
500522
500523
500524
500536
500542
500372
500367
500368
500375
500370
500382
500369
500390
500371
500373
500392
500393
500394
500396
500410
500411
500412
500414
500428
500430
500432
500429
500447
500448
500464
500465
500466
500482
500485
500625
500487
500643
500511
500513
500535
500534
500537
500540
500547
500551
500552
500554
500556
500557
500572
500559
500560
500563
500565
500576
500567
500580
500570
500584
500568
500583
500585
500586
500587
500592
500594
500593
500599
500601
500604
500608
500612
500613
500614
500619
500620
500621
500627
500628
500648
500652
500664
500666
500663
500673
500675
500676
500692
500697
500698
500699
500702
500703
500705
500706
500707
500718
500710
500716
500728
500727
500729
500734
500736
500737
500739
500745
500746
500753
500754
500755
500760
500761
500762
500767
500769
500789
500791
500793
500807
500816
500840
500855
500856
500844
500860
500875
500884
500886
500897
500901
500903
500914
500918
500931
500948
500977
500998
501013
501023
501019
501032
501052
501061
501070
500704
500561
500564
500701
)
;
masterStickOutFaces List<label> 
1596
(
81922
217091
81923
217092
81924
217093
81926
217094
217095
81928
81929
81930
81931
217103
217104
217106
213056
213057
213059
213060
213069
213070
213073
213074
213075
82004
82005
82006
213079
82008
213080
213081
213082
82010
82011
82012
430174
82014
213090
213091
213092
217188
217189
213093
217190
217191
217192
217193
213097
213098
430186
213099
213100
217196
217197
217200
217201
213108
217204
213109
217205
213110
217206
213111
217207
217208
217209
217210
213115
217211
213116
217212
217213
213117
213118
217214
217215
217216
217217
217218
217219
217220
217222
217223
213127
217224
213128
213129
217225
213130
217226
217228
217232
217233
217234
217235
221356
221359
221361
221363
221364
221380
221383
221386
221387
213207
213208
213213
213214
213219
213220
213227
213228
213229
213230
213231
213232
213233
213234
213235
213236
213237
213238
213239
213240
213245
217343
217344
217345
217346
213250
217349
217350
213257
213258
217355
217356
217363
217364
217366
217367
217368
217369
217370
217371
217372
217373
217374
217375
217376
217377
217378
217382
221479
217383
221481
217385
221482
217388
221485
221486
221487
217395
221500
221501
221503
221504
221505
221506
221507
221508
221510
221511
430407
221513
221514
430410
221516
221517
221518
221519
221520
221521
221522
221525
221526
430422
221528
221529
221531
221534
221535
221537
221547
213357
213358
213360
213361
213363
213364
213365
213366
213367
213369
213370
213371
213372
213373
213375
213376
213377
213380
213381
213382
213383
209317
209318
217511
217512
217513
209321
209322
209323
209324
217516
217517
217521
217522
217523
209333
209334
209335
217528
217529
209337
217530
209338
217531
217532
209342
217534
209343
217535
209344
209345
217537
70082
70083
70084
217540
70088
209353
70089
217545
217546
209354
70090
209355
70091
209356
70092
70093
221646
70094
221647
70095
221648
209360
70096
209361
70097
221650
70098
209362
221651
70099
209363
221652
70100
70101
221656
221657
209371
209372
209373
209374
221663
221664
221666
221667
209379
221668
209380
221669
209381
209382
221671
209383
221672
221674
221675
221677
221678
213486
221679
221680
213488
209393
221682
209394
213490
221683
213491
209395
209396
213493
221685
213494
221686
213495
213496
221688
221690
213498
221691
213499
221693
213501
221694
213502
221696
221701
217634
217635
217636
217639
217640
217644
217645
217646
217651
217652
217654
217655
217656
217657
217658
217659
217660
217661
217662
217663
209473
217665
209474
217666
217671
209481
209482
209483
209484
217676
213585
209489
209490
213587
209491
213589
213590
213591
213593
209497
213594
209498
213595
209499
213596
209500
213597
209501
209502
213598
209503
86624
213600
86625
213601
86626
86627
213603
213604
221797
213605
209509
221798
86630
213606
209510
221799
213607
86631
86632
86633
221802
86634
221803
86635
209516
221804
86636
86637
221808
221809
209523
209524
221815
221818
221819
221820
221821
221822
221824
221825
217731
70275
221827
217732
70276
221828
70277
70278
221830
70279
221831
217736
70280
221832
221833
217737
70281
221834
217738
70282
221835
70283
70284
221836
217742
70286
221838
217743
70287
221839
221841
221842
221844
217749
213653
213654
221846
221847
217752
217753
221849
213658
217754
213659
217755
217756
213660
221852
217757
217758
213663
217759
213664
217760
217761
217762
217763
217764
217765
213669
217766
213670
217767
217768
213672
217769
217770
213674
217774
213678
213679
217779
213684
213685
209624
209625
209626
209627
205532
209629
205533
209630
209632
205536
209633
205537
209634
205538
209636
209637
209638
209639
209640
213738
209642
213739
209643
205548
209644
205549
209646
205550
217838
205551
217839
213743
209647
217840
213744
205552
205553
217841
217843
217844
213748
217845
213749
217846
205558
205559
221944
217849
205561
221946
217850
213754
205562
217851
213755
217852
213756
217853
213757
221950
217854
213758
221951
217855
213759
217856
213760
217857
213761
217858
217859
217860
205572
217861
205573
213765
217862
205574
217863
205575
217864
205576
213770
217867
217868
217869
221965
221966
217870
213775
221967
213776
221970
221971
221972
221975
86809
86810
86811
86812
86813
86815
221983
86816
221984
86817
221985
221988
221989
70437
221990
70438
70439
70440
70441
70443
70444
70445
222001
201522
201523
222003
201526
201527
201528
201530
201531
201532
201533
201534
201535
213823
213825
213826
213827
213828
213829
213831
213832
213833
213834
213835
201547
213836
201548
213838
201550
213839
201551
213840
213841
213842
201554
201555
213843
213844
201556
213845
201557
201558
217944
209752
217945
217946
205658
209754
217947
205659
217948
209756
217949
209757
217950
205662
217951
209759
205663
217952
209760
217953
209761
217954
209762
205666
205667
209764
205668
217956
209765
205669
217957
205670
209767
217959
209768
217960
205673
217961
217962
205674
217963
205675
205676
217964
205677
217965
217966
205678
217967
205679
217968
205680
205681
217970
205682
205683
217971
205684
205687
205688
205689
205690
222075
222077
205693
205694
222079
205695
205696
222081
222082
205699
213892
205700
213893
205701
213897
213898
213900
213903
222096
213904
222098
222101
213909
222102
213911
213912
213913
213914
213915
213916
213917
213918
213919
213920
213921
213922
213923
213924
213925
213926
213927
70568
213929
70569
70570
70571
213931
70572
70574
86959
70575
213935
86960
70576
213936
201648
86961
201649
86962
201650
201652
201653
86965
213942
86966
86967
201656
218040
86968
201657
218041
201658
218042
201659
218044
201660
201661
218046
201662
218048
209856
201664
209857
201665
201666
209859
201667
218052
209860
201669
209862
201670
209863
201672
209865
201673
209866
209867
201675
209868
201676
209869
201677
218061
201678
218062
209871
201679
218063
209872
201681
218066
209874
209875
201683
201684
218068
201685
201687
201688
201689
201690
201696
484325
201702
201703
201704
201705
201706
201709
201710
201711
201712
205812
205813
205820
205821
205822
214015
209923
209924
205828
205829
214022
205830
205831
209928
205832
209929
205833
209930
214026
205834
205836
209933
205837
209934
205838
205839
205840
205841
205842
209939
70675
209940
214036
70676
70677
209942
70678
70679
70680
205848
209944
70682
214042
70683
209948
209949
209951
205855
205856
209954
209955
205861
205862
205863
205864
205865
87084
87085
87086
87087
87090
87091
87092
87093
201814
201815
210009
210010
210011
201821
201822
201823
210016
210017
201825
210018
201826
210019
201827
201828
201829
201830
210023
201831
210024
201832
201833
201835
210029
201837
210030
201838
210031
210032
263280
201840
263281
201842
70772
201844
70773
210037
201845
70774
210038
70775
263287
263290
70778
201851
263291
70779
210044
70780
263293
70781
263294
263297
201857
210049
210050
201858
263299
201859
201860
201861
263302
201862
201863
201864
201865
263308
263309
263310
263312
263313
205977
205978
205979
87198
87199
205984
87201
205985
87202
205986
205987
205988
205990
205991
205992
205993
205995
206000
206001
210101
206006
210102
206007
210103
206008
210105
206009
210106
206011
210107
263356
206012
210108
263357
210109
206013
263358
206014
210110
210112
263361
210113
210114
263362
263363
210115
210116
210117
263366
210118
210119
210121
210122
210123
70860
210124
70861
210125
263374
70863
263375
263376
263377
70866
70867
70868
263381
70869
70870
263382
70871
70872
70873
70874
70875
70876
70877
70878
70879
201961
201962
201968
201969
201972
201973
201974
87287
201975
87288
201976
87289
201977
87290
201978
87291
210171
87292
210172
201980
87293
210173
201981
201982
87295
201984
201985
210178
210179
201987
210180
201988
210182
201990
201991
210185
201993
210186
201995
201996
201997
210191
201999
210192
202000
210194
210195
210196
210197
202005
206101
210198
206102
210199
206103
210200
210201
210202
210203
202011
202012
210204
206108
202013
210205
206109
202014
210206
206110
202015
210208
202016
206112
202017
206113
202018
202019
210211
206115
210212
206116
206118
206120
210217
206121
206122
210218
206123
206124
210220
210223
206129
206135
206136
206137
206138
206140
70972
70973
206141
206142
70975
206144
70978
70979
70980
70982
87374
87375
87376
87377
87378
87380
87381
87382
484703
206201
210298
206202
443773
202110
202111
206208
202113
206209
202114
202115
210308
202116
202119
206215
206216
210312
202120
202121
210313
443785
202123
206221
206222
206223
206224
206225
210322
206226
206227
206228
202132
202133
206229
202134
206230
206231
202135
202136
206232
202137
206233
202138
206234
202139
210331
202141
210334
206239
202150
206246
202151
202152
202153
202154
202155
206251
206252
202156
202157
87472
87473
87474
87475
87476
87477
87478
87479
202168
87480
87481
202169
87482
202170
87483
202171
87485
202173
202174
202175
202176
206305
206306
206307
206308
206311
206312
206313
206314
206315
206316
206317
206318
206319
206320
206321
206322
206324
206325
206326
206327
206330
206331
206332
206333
206334
202248
202249
202250
202251
202252
202253
202254
202255
202256
202257
202258
202269
202270
202271
202272
202273
202274
202275
202276
202277
206407
206408
206409
206410
206411
206413
206414
206416
206417
206418
206419
206420
206422
206423
206424
206426
206427
206492
206502
206503
206504
206505
206506
206507
206508
206509
206511
206512
206515
206524
206525
206526
206527
206528
206529
206531
206532
497372
497377
444145
444157
75662
75663
75664
75665
75666
75667
75668
75669
75670
75671
75673
75674
92214
92215
92216
92220
75836
92221
75837
92222
75838
92223
75840
75841
75842
75843
75844
75989
75990
75991
75992
92402
92403
92404
92408
92409
92410
92411
92412
92413
92414
92415
92416
92417
92418
92419
92420
92422
76108
76109
76110
76111
92570
92571
92572
92573
92575
92576
92577
92578
92579
92580
92581
92584
498092
76210
76211
76213
76215
76216
76217
76218
76219
76304
76306
76307
76308
92707
92708
92709
92710
92712
92713
92714
92715
92716
92717
92718
92719
76386
76387
76388
76389
76390
76391
76392
76396
92815
92816
92817
92818
92821
92822
92823
92824
92825
92826
92827
92828
92829
92830
92831
92832
92833
76472
76473
76475
76478
76479
76480
76481
76482
92935
92936
92937
76555
92939
76556
92940
92941
76558
92942
92943
92945
76561
92946
76562
92947
76563
92949
76565
457503
457511
93035
93036
93038
93041
93042
93043
93044
64626
64627
64628
64631
64632
64633
64634
81109
81110
81111
81112
81113
81114
81116
81117
64796
64797
64798
64799
64801
64802
64803
64804
64806
64807
64809
64810
81277
81279
81280
81281
81283
81284
81285
81286
429469
429472
429481
64938
64939
64940
429485
64941
64943
64944
64945
64946
64948
64949
64951
64952
81432
81433
81434
81435
65059
65061
65063
65065
65066
65067
65069
81556
81557
81558
81559
81658
81659
81660
81662
81664
81665
81666
81667
81752
81753
81755
81756
81840
81841
81842
81843
81844
81845
81846
81849
470988
217068
217069
217070
217071
217072
217081
217082
217085
217086
)
;
slaveStickOutFaces List<label> 
1628
(
1499136
1499137
1499138
1499139
1499140
1499141
1499142
1499143
1499146
1499147
1499148
1499149
1499150
1499152
1499153
1499154
1499155
1499156
1499157
1499159
1499160
1499162
1499163
1499164
1499165
1499166
1499167
1499168
1499169
1499170
1499171
1499172
1499173
1499174
1499175
1499176
1499177
1499178
1499179
1499180
1499181
1499182
1499183
1499184
1499185
1499186
1499188
1499189
1499191
1499192
1499194
1499195
1499196
1499197
1499198
1499199
1499200
1499202
1499203
1499205
1499206
1499207
1499208
1499209
1499210
1499211
1499212
1499213
1499214
1499218
1499219
1499221
1499224
1499225
1499229
1499230
1499231
1499234
1499235
1499236
1499239
1499240
1499245
1499246
1499247
1499248
1499249
1499250
1499251
1499252
1499253
1499255
1499256
1499257
1499258
1499259
1499261
1499263
1499264
1499265
1499266
1499268
1499269
1499270
1499271
1499273
1499274
1499276
1499277
1499278
1499279
1499280
1499282
1499284
1499286
1499287
1499288
1499290
1499291
1499292
1499293
1499294
1499295
1499297
1499298
1499299
1499302
1499303
1499304
1499305
1499307
1499309
1499310
1499312
1499313
1499314
1499315
1499316
1499318
1499319
1499320
1499321
1499322
1499324
1499325
1499327
1499328
1499330
1499332
1499334
1499335
1499337
1499338
1499339
1499340
1499341
1499342
1499343
1499345
1499346
1499348
1499349
1499350
1499352
1499353
1499355
1499356
1499357
1499358
1499359
1499361
1499362
1499363
1499364
1499369
1499381
1499386
1499388
1499392
1499393
1499394
1499407
1499408
1499410
1499411
1499412
1499413
1499414
1499415
1499418
1499419
1499421
1499424
1499429
1499430
1499434
1499435
1499436
1499439
1499440
1499444
1499445
1499446
1499451
1499452
1499453
1499454
1499455
1499456
1499457
1499458
1499459
1499460
1499463
1499464
1499465
1499466
1499468
1499469
1499470
1499471
1499472
1499474
1499475
1499476
1499477
1499478
1499480
1499481
1499482
1499483
1499484
1499485
1499486
1499487
1499490
1499491
1499492
1499493
1499494
1499496
1499502
1499503
1499504
1499506
1499508
1499509
1499510
1499511
1499512
1499513
1499517
1499518
1499521
1499522
1499524
1499525
1499526
1499527
1499528
1499529
1499530
1499531
1499532
1499533
1499534
1499535
1499536
1499537
1499538
1499539
1499540
1499541
1499542
1499543
1499545
1499546
1499547
1499548
1499549
1499551
1499552
1499553
1499554
1499556
1499557
1499559
1499560
1499561
1499562
1499563
1499564
1499565
1499567
1499569
1499573
1499574
1499575
1499576
1499577
1499578
1499579
1499580
1499581
1499584
1499585
1499589
1499590
1499591
1499592
1499593
1499594
1499595
1499596
1499597
1499600
1499601
1499602
1499603
1499604
1499605
1499607
1499608
1499609
1499610
1499611
1499613
1499615
1499616
1499617
1499618
1499620
1499621
1499622
1499623
1499624
1499626
1499627
1499629
1499630
1499632
1499633
1499635
1499636
1499638
1499639
1499641
1499642
1499643
1499644
1499645
1499647
1499648
1499650
1499651
1499653
1499654
1499655
1499657
1499659
1499660
1499662
1499663
1499664
1499665
1499667
1499668
1499670
1499671
1499673
1499675
1499677
1499678
1499680
1499681
1499682
1499683
1499685
1499686
1499688
1499689
1499690
1499691
1499693
1499695
1499696
1499697
1499698
1499699
1499700
1499701
1499702
1499703
1499704
1499705
1499710
1499715
1499716
1499722
1499723
1499733
1499734
1499735
1499740
1499741
1499742
1499743
1499748
1499749
1499750
1499751
1499752
1499756
1499761
1499765
1499766
1499767
1499768
1499769
1499771
1499772
1499776
1499777
1499781
1499782
1499783
1499784
1499785
1499787
1499788
1499789
1499790
1499791
1499792
1499793
1499795
1499796
1499797
1499799
1499800
1499801
1499802
1499803
1499804
1499805
1499807
1499808
1499810
1499811
1499812
1499813
1499814
1499815
1499816
1499820
1499821
1499822
1499824
1499825
1499826
1499827
1499828
1499830
1499832
1499833
1499834
1499835
1499836
1499837
1499839
1499840
1499841
1499842
1499843
1499844
1499845
1499847
1499848
1499849
1499850
1499851
1499852
1499853
1499854
1499855
1499856
1499857
1499858
1499859
1499860
1499861
1499862
1499863
1499864
1499865
1499866
1499867
1499869
1499872
1499878
1499879
1499880
1499881
1499882
1499883
1499884
1499885
1499886
1499887
1499888
1499889
1499893
1499894
1499897
1499898
1499899
1499900
1499901
1499902
1499903
1499904
1499905
1499906
1499907
1499908
1499909
1499910
1499911
1499913
1499916
1499922
1499923
1499924
1499925
1499926
1499927
1499928
1499929
1499930
1499932
1499933
1499934
1499939
1499940
1499941
1499943
1499944
1499945
1499946
1499947
1499948
1499949
1499951
1499952
1499953
1499954
1499959
1499965
1499966
1499967
1499968
1499970
1499971
1499972
1499973
1499975
1499976
1499982
1499983
1499984
1499986
1499987
1499989
1499990
1499991
1499992
1499994
1499995
1499996
1499997
1500002
1500008
1500009
1500010
1500011
1500013
1500014
1500015
1500016
1500018
1500019
1500025
1500026
1500027
1500029
1500030
1500032
1500033
1500034
1500035
1500037
1500038
1500039
1500040
1500045
1500051
1500052
1500053
1500054
1500056
1500057
1500058
1500059
1500061
1500062
1500068
1500069
1500070
1500072
1500073
1500075
1500076
1500077
1500078
1500080
1500081
1500082
1500087
1500088
1500093
1500094
1500095
1500096
1500098
1500099
1500100
1500101
1500102
1500103
1500104
1500110
1500111
1500112
1500113
1500114
1500115
1500117
1500118
1500119
1500120
1500121
1500122
1500123
1500124
1500125
1500126
1500128
1500129
1500130
1500131
1500132
1500133
1500146
1500147
1500152
1500153
1500154
1500156
1500157
1500172
1500173
1500174
1500175
1500176
1500177
1500178
1500179
1500180
1500181
1500182
1500183
1500184
1500185
1500186
1500187
1500188
1500189
1500190
1500191
1500192
1500193
1500194
1500195
1500196
1500197
1500198
1500203
1500209
1500210
1500211
1500212
1500213
1500214
1500215
1500216
1500217
1500224
1500225
1500226
1500228
1500229
1500230
1500231
1500232
1500233
1500234
1500235
1500236
1500237
1500238
1500239
1500240
1500241
1500242
1500243
1500245
1500246
1500247
1500248
1500249
1500251
1500252
1500253
1500254
1500255
1500256
1500258
1500259
1500261
1500262
1500263
1500264
1500265
1500266
1500267
1500268
1500269
1500270
1500271
1500272
1500273
1500274
1500275
1500277
1500278
1500280
1500281
1500282
1500284
1500285
1500287
1500288
1500289
1500290
1500292
1500294
1500295
1500296
1500298
1500299
1500300
1500302
1500303
1500305
1500306
1500308
1500309
1500310
1500311
1500312
1500313
1500315
1500317
1500318
1500319
1500321
1500322
1500323
1500324
1500326
1500327
1500329
1500330
1500332
1500333
1500334
1500335
1500336
1500338
1500340
1500341
1500343
1500345
1500347
1500348
1500350
1500351
1500352
1500354
1500355
1500356
1500357
1500359
1500361
1500363
1500364
1500365
1500366
1500367
1500368
1500369
1500370
1500371
1500619
1501075
1501414
1501428
1497520
1497521
1497522
1497523
1497524
1497525
1497526
1497527
1497528
1497529
1497530
1497531
1497532
1497533
1497534
1497535
1497536
1497537
1497540
1497541
1497543
1497546
1497547
1497548
1497549
1497550
1497551
1497552
1497553
1497554
1497555
1497568
1497569
1497570
1497571
1497574
1497575
1497576
1497577
1497590
1497591
1497592
1497593
1497596
1497597
1497598
1497599
1497612
1497613
1497614
1497615
1497618
1497619
1497620
1497621
1497634
1497635
1497636
1497637
1497640
1497641
1497642
1497643
1497644
1497646
1497648
1497655
1497656
1497657
1497658
1497659
1497660
1497661
1497662
1497663
1497665
1497666
1497667
1497668
1497669
1497671
1497672
1497673
1497674
1497675
1497676
1497677
1497678
1497679
1497680
1497681
1497682
1497683
1497684
1497685
1497686
1497687
1497688
1497698
1497699
1497700
1497701
1497702
1497703
1497704
1497705
1497706
1497709
1497728
1497729
1497730
1497731
1497756
1497757
1497758
1497759
1497785
1497786
1497787
1497788
1497814
1497815
1497816
1497817
1497843
1497844
1497845
1497846
1497848
1497849
1497851
1497853
1497872
1497873
1497874
1497875
1497876
1497877
1497879
1497880
1497899
1497900
1497901
1497914
1497915
1497916
1497917
1497918
1497920
1497921
1497922
1497923
1497924
1497925
1497926
1497928
1497929
1497932
1497933
1497934
1497935
1497936
1497937
1497938
1497939
1497940
1497941
1497954
1497955
1497956
1497958
1497960
1497961
1497965
1497984
1497985
1497986
1497987
1497988
1498013
1498014
1498015
1498016
1498018
1498019
1498020
1498021
1498047
1498048
1498049
1498050
1498076
1498077
1498078
1498079
1498105
1498106
1498107
1498108
1498134
1498135
1498137
1498138
1498139
1498140
1498141
1498143
1498144
1498163
1498164
1498165
1498166
1498167
1498168
1498169
1498170
1498185
1498186
1498187
1498190
1498192
1498193
1498201
1498202
1498203
1498204
1498205
1498206
1498207
1498208
1498209
1498210
1498211
1498212
1498213
1498214
1498215
1498216
1498217
1498218
1498219
1498220
1498221
1498222
1498224
1498226
1498227
1498228
1498229
1498230
1498231
1498232
1498233
1498234
1498247
1498248
1498250
1498253
1498254
1498255
1498256
1498257
1498259
1498260
1498280
1498281
1498282
1498283
1498284
1498285
1498287
1498288
1498308
1498309
1498310
1498311
1498312
1498313
1498315
1498316
1498336
1498337
1498338
1498339
1498340
1498341
1498343
1498344
1498364
1498365
1498366
1498367
1498368
1498369
1498370
1498371
1498372
1498388
1498389
1498390
1498391
1498392
1498393
1498394
1498408
1498410
1498411
1498412
1498413
1498414
1498415
1498416
1498417
1498421
1498422
1498423
1498425
1498426
1498427
1498428
1498429
1498430
1498431
1498432
1498433
1498434
1498435
1498436
1498437
1498438
1498439
1498440
1498441
1498442
1498443
1498444
1498445
1498446
1498447
1498448
1498449
1498450
1498451
1498452
1498454
1498455
1498456
1498457
1498459
1498460
1498461
1498462
1498463
1498464
1498465
1498466
1498468
1498470
1498471
1498472
1498474
1498475
1498476
1498477
1498478
1498479
1498480
1498481
1498483
1498484
1498485
1498486
1498488
1498489
1498490
1498491
1498492
1498493
1498494
1498495
1498497
1498498
1498499
1498500
1498502
1498503
1498504
1498505
1498506
1498507
1498508
1498509
1498511
1498512
1498513
1498514
1498515
1498516
1498517
1498518
1498519
1498520
1498521
1498522
1498523
1498524
1498525
1498526
1498527
1498528
1498529
1498530
1498531
1498532
1498533
1498534
1498535
1498537
1498538
1498540
1498541
1498542
1498543
1498544
1498545
1498546
1498548
1498549
1498551
1498552
1498553
1498554
1498555
1498556
1498557
1498558
1498559
1498560
1498561
1498562
1498563
1498564
1498565
1498566
1498568
1498569
1498571
1498572
1498574
1498575
1498576
1498577
1498578
1498580
1498581
1498583
1498584
1498586
1498587
1498588
1498589
1498590
1498591
1498592
1498593
1498594
1498595
1498596
1498597
1498598
1498599
1498600
1498601
1498604
1498605
1498607
1498608
1498610
1498611
1498612
1498613
1498614
1498616
1498617
1498619
1498620
1498622
1498623
1498624
1498625
1498626
1498627
1498628
1498629
1498630
1498631
1498632
1498633
1498634
1498636
1498637
1498639
1498640
1498642
1498643
1498644
1498645
1498647
1498648
1498650
1498651
1498653
1498654
1498655
1498656
1498657
1498658
1498659
1498660
1498661
1498662
1498663
1498664
1498666
1498667
1498668
1498669
1498670
1498672
1498673
1498674
1498675
1498677
1498678
1498680
1498681
1498682
1498683
1498684
1498685
1498686
1498687
1498688
1498690
1498691
1498692
1498693
1498694
1498695
1498696
1498697
1498698
1498699
1498700
1498701
1498702
1498703
1498704
1498705
1498706
1498707
1498708
1498709
1498710
1498711
1498712
1498713
1498714
1498715
1498716
1498717
1498718
1498719
1498720
1498721
1498722
1498723
1498724
1498725
1498726
1498727
1498728
1498729
1498730
1498731
1498733
1498734
1498735
1498736
1498738
1498746
1498747
1498748
1498750
1498751
1498752
1498753
1498755
1498756
1498757
1498761
1498764
1498765
1498766
1498767
1498768
1498769
1498770
1498771
1498772
1498773
1498774
1498775
1498776
1498777
1498778
1498779
1498780
1498782
1498784
1498785
1498790
1498795
1498796
1498797
1498800
1498801
1498802
1498805
1498806
1498807
1498812