/*--------------------------------*- C++ -*----------------------------------*\
| =========                 |                                                 |
| \\      /  F ield         | OpenFOAM: The Open Source CFD Toolbox           |
|  \\    /   O peration     | Version:  5.x                                   |
|   \\  /    A nd           | Web:      www.OpenFOAM.org                      |
|    \\/     M anipulation  |                                                 |
\*---------------------------------------------------------------------------*/
FoamFile
{
    version     2.0;
    format      ascii;
    class       polyTopoChanger;
    location    "constant/polyMesh";
    object      meshModifiers;
}
// * * * * * * * * * * * * * * * * * * * * * * * * * * * * * * * * * * * * * //

1
(
couple
{
    type slidingInterface;
    masterFaceZoneName tumor_exttumor_intMasterZone;
    slaveFaceZoneName tumor_exttumor_intSlaveZone;
    cutPointZoneName tumor_exttumor_intCutPointZone;
    cutFaceZoneName tumor_exttumor_intCutFaceZone;
    masterPatchName tumor_ext;
    slavePatchName tumor_int;
    typeOfMatch partial;
    coupleDecouple true;
    projection visible;
    attached true;
    active true;
masterFaceCells List<label> 
886
(
19278
19318
19319
19320
19356
19357
19390
19391
19423
19424
19425
19457
19458
19459
20256
20257
20258
20296
20297
20333
20334
20367
20368
20399
20429
20430
20486
21214
21215
21256
21292
21293
21358
21359
21388
21389
21417
21470
21496
21497
22198
22199
22238
22239
22305
22306
22337
22366
22393
22419
22420
22445
22470
22495
22496
23174
23175
23211
23212
23246
23278
23279
23363
23388
23389
23459
23460
23461
24149
24150
24187
24254
24255
24284
24312
24339
24340
24365
24390
24413
24414
24438
25135
25174
25175
25209
25210
25272
25300
25301
25327
25353
25402
25403
26171
26172
26209
26210
26242
26274
26275
26304
26305
26332
26333
26359
26385
26386
27267
27268
27269
27301
27302
27303
27334
27335
27336
27337
27366
27367
27368
27396
27397
51774
51775
51781
51782
51813
51814
51815
51820
51821
51822
51828
51857
51858
51859
51864
51865
51866
51872
51895
51902
52594
52595
52601
52602
52619
52621
52622
52623
52624
52625
52626
52627
52628
52629
52631
52634
52635
52641
52660
52662
52663
52664
52665
52666
52667
52668
52669
52670
52671
52673
52675
52676
52694
52695
52696
52697
52698
52699
52701
52703
52727
52729
52730
52731
52732
52736
52738
52739
52761
52763
52764
52766
52767
52769
52771
52772
52773
52774
52778
52780
52794
52800
52802
52803
52804
52805
52806
52812
52841
53468
53469
53475
53476
53491
53492
53494
53495
53496
53499
53521
53523
53524
53525
53534
53553
53555
53556
53576
53578
53580
53605
53607
53613
53635
53637
53638
53664
53666
53667
53696
53699
53705
53706
53744
54349
54351
54352
54353
54354
54355
54356
54358
54361
54362
54363
54369
54385
54387
54388
54390
54391
54415
54417
54418
54436
54437
54438
54439
54463
54464
54465
54493
54495
54520
54521
54522
54523
54552
54554
54555
54557
54582
54583
54623
54624
55237
55240
55241
55244
55247
55248
55254
55270
55274
55276
55277
55278
55282
55283
55299
55303
55304
55322
55323
55324
55325
55326
55327
55353
55357
55358
55364
55381
55383
55385
55404
55406
55408
55410
55432
55435
55461
55462
55463
55498
55527
55530
56131
56134
56135
56138
56141
56142
56148
56167
56171
56172
56173
56174
56175
56179
56200
56204
56205
56208
56225
56226
56227
56229
56253
56257
56258
56286
56288
56290
56293
56312
56314
56316
56336
56358
56359
56360
56387
57030
57037
57053
57054
57056
57057
57058
57059
57060
57061
57062
57063
57071
57086
57087
57088
57109
57111
57113
57115
57143
57144
57170
57175
57204
57209
57237
57238
57239
57260
57323
57913
57918
57919
57922
57924
57928
57931
57962
57964
57986
57993
58015
58017
58019
58034
58036
58038
58039
58061
58063
58065
58096
58814
58815
58820
58849
58859
58860
58861
58888
58895
58896
58897
58922
58924
58951
58953
59787
59792
59832
51812
51819
51826
52700
51856
51863
51870
52733
51894
52768
51901
52770
52726
53601
53608
52797
53662
52816
52840
53701
52847
53703
67970
53493
54348
54384
54435
53560
54549
54556
54584
53736
54611
54617
53743
54621
55236
55275
54357
55243
55379
54494
55402
55428
55490
55497
54614
55519
55526
56130
56137
56144
56228
56284
56260
56291
56310
56317
56332
56339
56380
56389
56419
56425
56426
57036
57108
57114
57142
57168
57202
57261
57286
57287
68044
57961
58014
58020
58119
58126
58154
58162
58207
58858
58862
58894
58867
58898
58925
59004
59005
59055
59793
59838
52633
52677
52705
52706
52734
52779
52810
52799
52811
52848
53498
67965
67979
53505
67987
53527
53528
53558
53562
53582
53584
53585
53610
53612
53665
53640
53668
53643
53642
53669
53671
53675
53700
53702
53737
53704
53712
53708
67998
54360
54397
54420
54421
54422
54440
54444
54446
54467
54469
54471
54497
54499
54501
54524
54528
54530
54580
54559
54560
54590
54579
67992
54625
54586
54633
54616
54618
54619
54620
54622
54628
54629
55281
55279
55285
55306
55308
55310
55329
55333
55360
55362
55387
55389
55390
55412
55413
55440
55436
55438
55442
55494
55464
55465
55469
55523
55500
55533
55503
55536
55502
55528
55529
55563
55566
55567
55570
55573
55574
55531
55532
55580
55537
56176
56178
56181
56207
56210
57091
56231
56235
56262
56264
56292
56295
56318
56320
56319
56340
56342
56344
56346
56384
57256
56361
56362
56366
56412
56388
56416
56390
56392
56393
56420
56421
56422
56459
56462
56463
56466
56469
56470
56423
56424
56476
57328
56428
56429
57065
57067
57930
68004
68011
57953
57089
57095
57116
57117
57145
57147
57151
57176
57178
57180
57182
57210
57212
57214
57216
57258
58092
57242
57244
58097
57240
57262
57263
57264
57295
57289
68051
57320
58161
57290
57291
57336
57319
57322
57361
57324
57325
57326
57327
57368
57329
57330
57331
57923
57927
57959
57960
58809
58826
57967
58827
57992
57994
57996
58000
58868
58889
58022
58021
58024
58920
58041
58043
58040
58949
58066
58067
58068
58094
58127
58973
58098
58099
58100
58129
58997
58130
58132
58167
58134
59017
58164
58194
58203
59047
59048
58209
59053
58168
58213
58165
58166
58170
58202
58204
58208
58210
58819
58823
58824
58855
58856
58857
59706
59707
59713
59714
58863
58864
58865
58893
59740
59742
59747
59748
59749
59754
59755
59756
59762
58900
59763
58901
68059
59780
59781
59782
59797
59799
58926
58927
58929
59805
59825
58979
59826
59827
59842
59843
58955
59844
58954
58956
58958
58974
58976
58980
59872
59006
59874
59880
59881
59886
59887
59888
58983
59893
58981
59013
59894
58982
58984
58985
59008
59040
59009
59010
59916
59012
59011
59923
59014
59015
59016
59018
59059
59050
59054
59056
59789
59791
59795
59796
59798
59834
59836
59879
59839
59837
59840
)
;
slaveFaceCells  List<label> 
566
(
372132
372165
372324
372671
373184
372122
372123
372124
372125
372127
372128
372131
372135
372136
372139
372140
372142
372143
372144
372145
372146
372150
372154
372155
372160
372170
372175
372180
372184
372188
372189
372190
372192
372196
372197
372212
372218
372224
372230
372238
372239
372242
372243
372247
372248
372252
372253
372273
372278
372286
372287
372289
372290
372291
372292
372294
372298
372299
372303
372304
372308
372309
372313
372317
372318
372321
372322
372323
372325
372347
372354
372356
372361
372368
372373
372375
372393
372424
372425
372454
372484
372511
372517
372519
372539
372545
372572
372575
372578
372611
372613
372626
372639
372641
372653
372655
372657
372669
372673
372687
372689
372690
372702
372704
372711
372713
372714
372715
372727
372731
372740
372741
372769
372773
372778
372780
372782
372792
372796
372799
372810
372812
372814
372835
372854
372856
372870
372874
372876
372877
372887
372889
372891
372901
372903
372905
372918
372919
372921
372927
372930
372931
372932
372933
372935
372936
372940
372941
372947
372948
372950
372966
372969
372979
372980
372991
372993
372995
372996
372997
373007
373009
373011
373013
373023
373025
373027
373029
373035
373039
373041
373043
373049
373053
373055
373056
373058
373062
373063
373064
373065
373067
373068
373075
373085
373087
373088
373089
373091
373092
373095
373096
373097
373100
373102
373103
373104
373112
373118
373119
373122
373123
373131
373132
373133
373138
373139
373140
373146
373147
373148
373149
373150
373157
373158
373159
373171
373172
373173
373174
373176
373178
373179
373185
373186
373198
373199
373200
373201
373203
373204
373209
373211
373217
373218
373223
373224
373225
373226
373227
373233
373234
373235
373240
373241
373242
373245
373247
373248
373250
373253
373254
373259
373260
373261
373263
373264
373266
373267
373268
373269
373271
373272
373275
373276
372334
372338
372342
372346
372350
372357
372369
372428
372457
372459
372489
372520
372544
372566
372567
372570
372574
372581
372583
372587
372612
372635
372651
372667
372683
372698
372725
372732
372719
372733
372747
372774
372775
372790
372797
372808
372815
372836
372857
372885
372899
372893
372906
372926
372756
372937
372938
372952
372989
373005
373012
372855
373021
373028
372875
373037
373051
373066
373094
372958
373098
373099
373120
373124
373125
373047
373249
373262
373072
373252
373130
373137
373144
373170
373183
373197
373273
373208
373222
373239
373246
373258
373265
372362
372367
372378
372380
372385
372327
372386
372328
372387
372392
372326
372403
372404
372329
372330
372331
372417
372419
372426
372332
372333
372433
372335
372336
372337
372339
372446
372448
372453
372458
372341
372464
372343
372344
372345
372477
372479
372490
372348
372349
372496
372351
372352
372353
372355
372509
372525
372358
372531
372532
372537
372538
372548
372554
372555
372556
372561
372359
372363
372360
372594
372595
372364
372365
372370
372374
372604
372376
372377
372379
372395
372398
372622
372399
372401
372400
372637
372427
372430
372456
372461
372486
372488
372491
372493
372518
372685
372522
372524
372700
372546
372547
372549
372552
372563
372565
372568
372569
372571
372573
372576
372737
372580
372577
372584
372745
372596
372579
372599
372598
372767
372602
372600
372601
372624
372615
372617
372619
372629
372627
372631
372642
372645
372643
372833
372659
372661
372675
372677
372674
372692
372696
372707
372709
372706
372716
372717
372917
372734
372736
372743
372744
372746
372748
372749
372750
372770
372771
372751
372752
372781
372777
372794
372784
372786
372788
372798
372800
372834
372816
372817
372818
372837
372838
372839
372858
372859
372860
372879
372883
372895
372897
372907
372908
372909
372922
372924
372942
372946
372945
372951
372953
372954
372970
372972
372975
372974
372978
372981
372985
372987
373001
373003
373017
373019
373033
373045
373060
373061
373074
373101
373116
373117
373105
373106
373110
373111
373145
373126
373152
373156
373210
373228
373232
373270
373274
372340
372658
)
;
masterStickOutFaces List<label> 
3436
(
278528
278529
278530
278531
278532
278533
278534
278536
278537
278539
278540
278542
278543
278545
278547
278548
278550
278551
278553
278554
278556
278560
278561
278562
278563
278564
278565
278576
278577
278578
278579
278580
278581
278582
278583
278584
278638
278648
278649
278650
278651
278652
278653
278654
278655
278657
278658
278661
278670
278671
278672
278673
278674
278675
278677
278678
139431
139432
139433
139434
303329
303332
303334
303336
303337
303353
303356
303359
303360
303377
303380
114998
114999
115000
139578
139579
115004
139580
115005
139581
115006
115007
139583
115008
139584
139586
115010
139587
115011
115012
115013
115015
115016
115017
115018
115019
303443
303445
303446
303448
303450
303451
303467
303469
303470
303471
303472
303478
303479
303481
303482
303484
303486
303487
303488
303489
303490
303496
303497
303500
303502
303504
303507
303508
303557
303559
139720
139721
303561
139722
303563
139724
303564
303578
303579
303580
303581
303582
664031
303584
303585
664034
303587
664035
303588
303590
303591
303592
303593
303594
303596
303597
303599
303600
664048
303602
303604
303605
303607
303608
303610
303615
303620
303623
303626
287260
287261
287262
287263
115241
115242
115243
287276
115244
287277
115245
287278
115247
115248
115249
287282
115250
287283
115251
287284
115252
287285
115253
115254
115255
115256
115257
115258
115259
115260
287293
115261
287294
115262
287295
115263
287296
115264
287300
287301
287302
287303
303689
303691
303693
287311
303695
156240
287312
303696
156241
287313
156242
287314
139860
139861
139862
156246
156247
287319
139864
156248
287320
156249
287321
139866
156250
287322
139867
156251
287323
139868
156252
156253
303710
156254
139871
156255
303711
156256
303712
156257
303713
303714
156258
156259
156260
303716
303717
156261
287333
156262
287334
303719
287335
287336
303720
156265
303722
303723
303724
303725
303726
303727
303728
303730
303731
303733
303734
303736
303738
303739
303741
303742
303744
303754
303756
287378
287379
287380
287382
287383
287384
287386
287387
287392
287393
287394
287396
287397
287398
287400
287401
287402
287403
287404
287405
287406
287407
287408
287410
287411
287412
287413
287415
287416
287419
287420
303830
303832
303836
303837
140003
287459
140004
287460
140005
287461
287463
140007
287464
140008
140009
140010
303851
287467
287468
303852
140012
303853
140013
287469
140014
140015
303856
303857
140017
303858
287474
287475
287476
303861
287478
287479
287480
287482
287483
287484
303869
287486
303870
287487
303871
287488
303874
287490
303875
738051
287491
303876
287492
287493
287496
287497
303887
738063
115471
115472
303889
115473
738066
115474
115475
303892
115476
303893
115477
115478
738078
738081
156465
287537
156466
156467
287539
287541
287542
156471
287544
156472
287545
156473
287546
156474
156475
156476
156477
156478
156479
287552
287553
156482
287559
287566
287567
303962
303964
303966
303968
303983
303985
303988
287630
287631
287632
287638
287639
287640
287645
287646
287647
287653
287654
287657
287658
287659
287660
287663
287667
287668
287669
287670
115672
115673
115674
115675
115676
115677
115678
115679
115680
287717
287718
287722
287723
287727
287728
287733
287734
287735
156664
287736
156665
287737
156666
287738
156667
287739
156668
156669
287741
156670
287742
156671
156672
287744
287745
156673
156674
287785
287786
287790
287791
664625
287795
287796
664628
287801
287802
287803
287804
287805
287806
287807
287809
287810
287812
287813
287862
287863
287864
287869
287870
287871
287876
287877
287882
287883
287885
287886
287887
287889
287891
287895
287896
287898
115867
115868
287901
115869
287902
115870
115872
115873
115874
115875
115876
115877
115878
156853
156854
156855
156856
156857
156858
156859
156860
754885
754887
287957
287958
287960
287961
287963
287964
287966
287967
287968
287969
287970
287971
287976
287977
287983
287988
288046
288047
288048
288053
288054
288055
288057
288060
288061
288066
288067
288069
288070
288071
288072
288073
288074
288075
288076
288079
288080
288082
288083
288084
288085
116059
116060
116061
116062
116065
116066
157027
116067
157028
116068
157029
157030
116070
157031
116071
157032
116072
157033
116073
157034
116075
116076
116077
116078
116080
116081
116084
132471
132473
132474
132475
132476
132477
132478
132479
132480
288129
132481
288130
132482
738690
132483
288131
738691
288136
288137
288138
288140
288143
288144
288149
288150
288152
288153
288154
288155
288156
288158
288159
288160
288161
288162
288163
288164
288165
288166
288167
288168
288169
288170
288171
288172
288175
288176
288177
288178
288179
288181
288242
288243
288256
288257
157190
157191
157192
157193
157194
288266
157195
157196
157197
288272
288275
288276
288284
288290
116259
116260
288293
116262
288294
116265
116266
116267
116269
288302
116271
116272
116275
288311
288314
665182
132704
132705
665186
132706
132707
132708
132709
132710
132711
132712
157341
157342
157343
157344
157346
157347
157348
157349
157350
157351
157352
157354
755415
132911
132912
132913
132914
132915
132917
157494
157495
132919
157496
132920
157497
132921
157498
157499
157500
157501
157502
157503
157504
157505
157506
157507
157508
157509
157510
157511
649082
649083
649088
649091
649092
739221
722838
722839
296878
296881
296882
296883
296884
296885
296894
296895
296898
296899
296900
296901
296903
296904
296905
296907
296908
296911
157648
296912
157649
296913
157650
296914
157651
296915
296917
157654
296918
157655
157656
296920
157657
296921
157660
296924
157661
296925
157662
296926
296927
296928
296931
296932
296933
296934
296936
296942
296943
133103
296944
133104
296945
133105
296946
133106
133107
133108
133110
133111
296999
297000
297001
297002
297003
297004
297005
297010
297011
297014
297015
297018
297019
297020
297021
297022
297023
297024
297025
297026
297027
297028
297029
297030
297031
297032
297033
297034
297035
297036
297040
297041
297042
297043
297044
665693
297099
297100
297101
297102
297105
297106
297111
297112
297119
297120
297121
297122
297123
297124
297125
297126
297127
297128
297130
297131
297132
133292
297133
133293
297134
133294
133295
297137
297138
297143
297144
297145
297146
755911
755916
297193
297194
297196
297197
297199
297200
297201
297202
297205
297206
297207
297208
297209
297210
297211
297212
297213
297214
297216
297217
297250
297252
297253
297255
297256
297257
297258
297261
297262
297263
297264
297265
297266
297267
297268
297269
297274
297279
297286
133465
133466
133467
133468
297333
297335
297336
297338
297339
297340
297341
280958
280959
297344
297345
280961
297346
280962
297347
280963
297348
280964
297349
297350
280966
297351
280967
739720
297352
297353
280969
297354
280970
280971
280972
739725
297358
280974
280975
280976
297363
280981
280982
280984
280985
280986
280988
280989
280991
280992
280993
280995
280996
297425
297426
281043
297428
281044
297429
281045
297430
723414
281046
297431
723415
281047
281048
297433
281049
297434
281050
281051
297435
281052
281053
281054
297439
281055
297440
281056
297441
281057
297442
281058
297443
281059
297444
281060
297445
281061
297446
281062
297447
297449
297450
297451
281067
297452
281068
297453
281069
281070
281071
281074
281075
281076
281077
281078
133625
281081
133626
281082
133627
281083
133628
281084
133629
150050
150051
150052
150056
150057
297514
150058
297515
150059
150060
150062
297519
150063
297520
150064
297521
150065
150067
150068
281140
297525
150069
281141
297526
150070
281142
297527
150071
281143
281144
281145
281146
281147
297532
281148
281149
281150
297535
281151
297536
281152
297537
281153
297538
281154
297539
281155
297540
297541
297542
297543
297544
297545
281161
297546
281162
297547
297548
297551
281167
297552
281168
297553
281169
281170
281171
297558
281174
297559
281175
281176
281177
756361
281225
281226
281228
756366
297617
281233
297618
133778
281234
297619
133779
281235
133780
281237
133781
297622
281238
297623
133783
297624
297625
133785
281241
281242
133786
133787
281243
297628
281244
297629
281245
297630
281246
281248
281249
281250
297635
281252
281253
297638
281254
297639
281255
297640
297641
297642
281258
281259
297643
281260
297644
297645
297646
281262
297647
281263
297648
281264
297649
297650
297651
297652
297653
297654
297655
297656
297657
297658
297659
297660
297661
297662
297663
297664
297665
281303
281304
281305
281310
281311
281312
281313
281314
281316
281317
281318
281319
281321
281322
281323
281325
281326
281327
281328
281331
281332
281333
281334
297736
297737
297738
297742
297744
150291
150292
297748
297749
150293
150297
150298
150299
150300
297757
150301
297758
150302
150303
297759
297760
150304
297762
150307
297763
297764
297765
133925
297766
133926
297767
133928
297770
281386
281387
133931
281388
133932
297773
133933
297774
297775
297776
281393
297778
281394
297779
707379
281395
281396
297780
707380
297781
281397
297782
281398
297783
281400
281401
297786
281402
281403
297789
281405
297790
281406
297791
281407
297792
281409
281410
281411
297796
281412
297797
297799
281415
281416
281417
281418
740179
740184
281472
281473
281479
281480
281482
281483
281484
281486
281487
281488
281491
281492
281493
281494
281496
281497
281498
281499
281503
281504
281505
281506
281507
281508
281509
134073
134074
134076
134077
134079
134080
134081
134082
134083
134084
134087
281570
281571
281572
281573
150501
150502
150503
150504
281576
150505
281577
281578
150506
281579
150507
281580
281581
281582
281583
281584
281585
281586
281587
281588
281589
281590
281595
281601
281602
281603
281604
281606
281607
281608
281609
650276
650279
281671
281672
281673
281674
281675
281677
281678
281679
134223
281680
134224
134225
281681
281682
134227
281683
134228
281684
281685
134229
281686
134230
281687
281688
134232
134233
281689
134234
281690
134235
281691
281692
134237
281693
134238
281694
281695
281696
281697
281698
281699
281700
281702
281705
281711
281712
281713
281714
281715
281716
281717
281718
281719
150693
150694
150695
150696
150697
150699
150700
150703
281778
281788
281789
281790
281791
281792
281793
281794
281795
281797
281798
281801
281810
281811
281812
281813
281814
281815
281817
281818
740617
740622
150872
150873
150874
150875
150877
150878
150880
150881
150882
667017
757189
151039
151040
151041
151042
151044
151045
151047
151048
634433
634434
650824
290424
290425
290426
126589
126590
126591
126595
126597
331398
126598
290439
126599
290440
126600
290441
126602
126603
331403
126604
331404
290445
126605
290446
126606
331406
290447
126607
290448
126608
126609
331409
331410
126611
126613
126614
290456
290457
290458
290459
331421
331422
151198
290463
331423
151199
290464
331424
151200
290465
331425
151201
290466
151203
151204
151205
151207
741031
331433
290474
331434
290475
741036
290476
331436
290477
331440
290481
290482
290483
290484
331445
331446
331447
331448
331451
331452
290493
290494
290495
331455
331457
290497
331458
331461
331462
331463
331465
331466
331472
331475
331476
331478
331479
331482
331484
331493
331494
331496
331501
331504
331505
290545
290546
331507
290548
290549
290551
331515
290556
290557
290558
331518
331519
331520
290560
290561
331522
290562
290564
331525
290565
290566
290567
290568
290569
331530
290570
290571
290572
290574
290575
331536
290576
290578
290579
667413
290582
290583
151347
151348
151349
151353
151354
151355
290640
290641
290643
290644
290646
290651
290652
290653
290655
290656
331617
290657
331618
290659
290660
290661
331622
290663
290664
290666
331627
290667
331628
290668
290669
290672
290673
331635
331636
126838
126839
126840
126841
331642
126844
126845
331646
126846
126847
126849
126850
331653
331656
331657
331661
331671
331673
331674
331679
290724
290726
290728
290729
290731
290732
290733
290738
290743
290750
290751
151493
151494
151495
151496
151497
151498
151499
151500
151501
151502
151503
151504
290803
290804
290809
290810
290815
290816
290817
290823
290824
290827
290828
290829
290830
290833
290837
290838
290839
290840
651324
651328
127051
127052
127053
127057
127058
127059
151636
127060
151637
127061
151638
127062
151639
151640
151641
290906
151642
290907
151643
151644
151645
151646
290911
151647
151648
290912
151649
151650
151651
290916
151653
290917
290922
290923
290924
290925
290926
290927
290929
290930
290931
290933
290934
667772
667779
635042
635043
290983
290984
290988
290989
635056
290993
290994
290999
291000
291001
291002
291003
291004
291006
291007
291009
291010
291011
291012
291013
291050
291051
291055
291056
291061
291062
291067
291068
291070
291071
291072
291074
291076
291080
291081
291086
291087
127254
127255
127256
127257
127258
127260
127262
127263
127265
291132
291134
291136
291137
291139
291140
291141
291142
291143
291144
291148
291153
291158
291200
291201
291205
291206
291208
291211
291212
291217
291218
291220
291221
291222
291223
291224
291225
291226
291227
291230
291231
291233
291234
291235
291236
127446
127447
127449
127450
127451
127453
127454
127455
291298
291299
668132
291303
291304
668137
291306
668139
291309
291310
291315
291316
291318
291319
291320
291321
291322
291324
291325
291326
291327
291328
291329
291330
291331
291332
291333
291334
291335
291336
291337
291340
291341
291342
291343
291344
651792
291346
651796
291421
291432
291433
291442
291448
291451
291452
291460
127624
127625
127626
291466
127627
127628
291469
127629
291470
127631
127632
127633
291478
291484
291488
635613
635617
275181
275182
275184
275185
275186
275187
275189
275190
275191
275192
275193
275205
275206
275208
275209
275210
275212
275213
275214
275215
275228
144158
144159
144160
144161
144162
275234
275235
275236
144164
275237
144165
275238
144166
144167
144168
144169
144170
144171
144172
144173
144174
127795
127796
127797
127798
127800
127801
127803
127804
127805
275294
275295
275296
275297
275298
275299
275300
275302
275303
275304
275315
275316
275317
275318
275319
275320
275321
275322
275333
275334
275335
275336
275337
275338
275339
275340
275351
275352
275353
275354
275356
275357
275358
275359
127955
127956
127957
127958
127961
127962
127966
275422
275425
275426
275427
275432
275433
275434
275445
275446
275447
275448
275449
275450
275451
275452
144386
144387
144388
144389
144390
144391
275463
144392
275464
144393
275465
144394
275466
144395
275467
275468
275469
275470
275481
275482
275483
275484
275486
275487
275488
275489
300101
300103
300104
300105
300106
300107
300108
693331
300117
300118
300121
300122
693340
300124
300125
300126
300127
300128
300130
275555
300131
275556
275557
300134
275558
300135
275559
275560
275561
300137
300138
275562
275564
300140
275565
300141
300142
128110
300143
128111
128112
300145
128113
300146
128114
128115
128116
128117
300149
300150
128118
128119
300152
128120
300153
275577
275578
300155
275579
275580
275581
300158
275582
300159
300160
275584
300161
275585
300163
300169
300170
300172
300173
275597
275598
275600
275603
300224
300225
300226
300227
300229
300230
300231
300236
300237
144593
144594
144595
144596
300244
300245
144597
144599
300247
144600
300248
300249
300250
144602
300251
300252
300253
300254
300255
300256
300257
300258
300259
300260
300261
300262
300263
300264
300265
300267
300268
300269
636141
300270
300271
636144
300272
300274
300275
300276
300277
300278
300279
300281
636153
300282
636157
300287
300288
300290
128264
128265
128266
128267
128268
128269
128270
128271
128272
128273
128274
128275
128276
128277
300340
300341
300342
300343
300344
300346
300347
300349
300350
300353
300354
300355
300356
300357
300358
300359
300360
300361
300362
300363
300364
300366
652622
300367
300368
300369
300370
652629
300431
300432
300433
144785
300434
144786
144787
300436
144788
284053
300437
144789
284054
300438
144790
284055
300439
144791
284056
284057
144793
284058
300442
144794
284059
300443
300444
300445
300446
300447
300448
300449
300450
300451
300453
300454
300455
300457
300460
300461
284078
284079
284080
284081
284082
300467
284083
619997
284130
300515
284131
300516
284132
300517
284134
300518
284135
284136
300520
284137
300521
300522
284138
300523
284139
284140
300526
284142
300527
284143
300528
284144
284145
300529
300530
284146
300531
284147
300532
284148
300533
284149
300534
284150
300535
284151
300536
284152
284153
300537
284154
300539
300540
284157
284158
300542
284159
284160
300545
284161
284162
284163
284164
300550
284170
284171
284172
284173
284174
284178
284184
284185
284186
284187
284188
300583
300584
300585
300586
300587
300588
300589
300591
300592
300593
300594
300598
300599
300601
300602
300603
300604
300605
300606
300607
300608
300609
300610
300611
144963
300612
144964
144965
300613
144966
300615
144967
300616
300617
284234
300618
284235
300619
284236
284237
284238
284239
284240
284241
284242
284243
284244
284245
284246
284247
284248
284249
284254
284255
284256
284257
284258
284262
284263
300652
284268
300653
284269
300654
284270
284271
300657
300658
300659
300663
300664
300670
300673
300674
300675
300676
300677
300678
300679
300681
300682
300683
300684
300685
300686
300687
300688
300689
300690
300691
300692
300693
300694
300695
300696
300697
300698
300699
300700
300701
300702
300703
300704
300705
284322
300707
284323
300708
284324
300709
284325
284326
300710
284327
300712
300713
284330
300714
300715
284331
284332
284333
300720
284336
284337
284338
284339
284341
284342
284343
284344
284345
284346
284347
284348
284349
636645
300776
300777
300778
145131
284395
145132
145133
284397
300782
145134
284398
300783
284399
300784
284400
284401
636657
284402
300788
636661
284408
284409
300797
300798
300799
284415
300800
284416
300801
300802
300803
300804
300805
284422
300807
284423
300810
300813
300814
300815
300816
300817
300818
300819
300820
300821
300823
300826
300829
300830
300831
300832
300834
300836
300837
300839
284469
284470
284471
284477
284478
284479
284480
284485
284486
284487
284488
284489
284494
284495
284501
284506
284507
145290
145291
145292
145293
145294
145296
145297
284562
284575
284576
284577
284582
284583
284584
284585
284586
284587
284592
284593
284599
284604
284605
284665
284666
284668
284669
284670
284671
284672
284673
284674
284675
284676
284681
284688
284693
284694
120864
120865
145441
120866
145442
120867
145443
145444
145446
120870
145447
120871
145448
120872
120873
145450
120874
145451
120875
120876
120877
120878
120879
120880
120881
120882
120884
120885
284753
653393
284754
653394
284755
284756
284759
284760
284761
653402
284762
284763
284765
284766
653407
653409
284769
284770
284771
284772
284773
284774
284775
284777
284778
284779
284780
284781
284836
284837
284838
284840
284841
284842
284843
284844
284845
284846
284847
145583
145584
284848
145585
284849
284850
284851
284852
284853
145589
284854
145590
145591
284855
284856
284858
284861
284867
284868
284870
637128
284873
284874
637132
284934
284935
284936
284937
121098
121099
284940
121100
284941
121101
284942
284944
121104
284945
121105
284946
121106
284947
121107
284948
121108
121109
121110
284950
284951
121112
284952
284953
121113
284954
284955
284956
284958
284959
284960
284961
284962
284963
284964
284965
284967
284968
284969
284970
284971
284972
284973
284974
284975
284976
284977
284980
284981
145718
284982
145719
284983
145720
284984
145722
284987
145724
145725
284990
145726
145727
145728
145729
145730
145731
145732
284996
284997
284999
285000
285002
285091
285093
285095
285096
285114
285117
285118
145863
145864
145865
145867
145868
145869
145870
145871
145873
145874
145875
145876
145877
145879
121320
121321
121322
121323
121324
121325
121326
121327