/*--------------------------------*- C++ -*----------------------------------*\
| =========                 |                                                 |
| \\      /  F ield         | OpenFOAM: The Open Source CFD Toolbox           |
|  \\    /   O peration     | Version:  5.x                                   |
|   \\  /    A nd           | Web:      www.OpenFOAM.org                      |
|    \\/     M anipulation  |                                                 |
\*---------------------------------------------------------------------------*/
FoamFile
{
    version     0.0;
    format      ascii;
    class       polyBoundaryMesh;
    location    "constant/tissue/polyMesh";
    object      boundary;
}
// * * * * * * * * * * * * * * * * * * * * * * * * * * * * * * * * * * * * * //


3
(
    adiabatic_wall
    {
        type            patch;
        inGroups        1 ( wall );
        nFaces          1256;
        startFace       232712;
    }

    skin
    {
        type            patch;
        inGroups        1 ( wall );
        nFaces          16932;
        startFace       233968;
    }

    tissue_to_gland
    {
        type            mappedWall;
        inGroups        1 ( wall );
        nFaces          41740;
        startFace       250900;
        sampleMode      nearestPatchFace;
        sampleRegion    gland;
        samplePatch     gland_to_tissue;
    }

)


// ************************************************************************* //
